/*---------------------------------------------------------------------------*\
| =========                 |                                                 |
| \\      /  F ield         | OpenFOAM: The Open Source CFD Toolbox           |
|  \\    /   O peration     | Version:  2312                                  |
|   \\  /    A nd           | Website:  www.openfoam.com                      |
|    \\/     M anipulation  |                                                 |
\*---------------------------------------------------------------------------*/
Build  : _e651d635-20240208 OPENFOAM=2312 patch=240220 version=2312
Arch   : "LSB;label=32;scalar=64"
Exec   : simpleFoam -parallel
Date   : Sep 16 2025
Time   : 09:53:55
Host   : work
PID    : 970320
I/O    : uncollated
Case   : /home/bm424/Projects/sandTrapShapeOpt/sandTrapCaseDir
nProcs : 10
Hosts  :
(
    (work 10)
)
Pstream initialized with:
    floatTransfer      : false
    nProcsSimpleSum    : 0
    nonBlockingExchange: 0 (tuning: 0)
    exchange algorithm : 0
    commsType          : nonBlocking
    polling iterations : 0
trapFpe: Floating point exception trapping enabled (FOAM_SIGFPE).
fileModificationChecking : Monitoring run-time modified files using timeStampMaster (fileModificationSkew 5, maxFileModificationPolls 20)
allowSystemOperations : Allowing user-supplied system call operations

// * * * * * * * * * * * * * * * * * * * * * * * * * * * * * * * * * * * * * //
Create time

Create mesh for time = 0


SIMPLE: convergence criteria
    field p	 tolerance 1e-05
    field U	 tolerance 1e-05
    field "(k|epsilon|omega|R)"	 tolerance 1e-05

Reading field p

Reading field U

Reading/calculating face flux field phi

Selecting incompressible transport model Newtonian
Selecting turbulence model type RAS
Selecting RAS turbulence model kOmegaSST
Selecting patchDistMethod meshWave
RAS
{
    RASModel        kOmegaSST;
    turbulence      on;
    printCoeffs     on;
    alphaK1         0.85;
    alphaK2         1;
    alphaOmega1     0.5;
    alphaOmega2     0.856;
    gamma1          0.555556;
    gamma2          0.44;
    beta1           0.075;
    beta2           0.0828;
    betaStar        0.09;
    a1              0.31;
    b1              1;
    c1              10;
    F3              false;
    decayControl    false;
    kInf            0;
    omegaInf        0;
}

No MRF models present

No finite volume options present

Starting time loop

Time = 1

DILUPBiCGStab:  Solving for Ux, Initial residual = 1, Final residual = 0.00105972, No Iterations 2
DILUPBiCGStab:  Solving for Uy, Initial residual = 1, Final residual = 0.00105219, No Iterations 2
DILUPBiCGStab:  Solving for Uz, Initial residual = 1, Final residual = 0.0098539, No Iterations 1
GAMG:  Solving for p, Initial residual = 1, Final residual = 0.00728966, No Iterations 9
time step continuity errors : sum local = 0.00605136, global = -7.38316e-05, cumulative = -7.38316e-05
DILUPBiCGStab:  Solving for omega, Initial residual = 0.221684, Final residual = 1.83537e-07, No Iterations 3
DILUPBiCGStab:  Solving for k, Initial residual = 1, Final residual = 4.03197e-06, No Iterations 3
ExecutionTime = 0.35 s  ClockTime = 0 s

Time = 2

DILUPBiCGStab:  Solving for Ux, Initial residual = 0.121852, Final residual = 0.00033771, No Iterations 1
DILUPBiCGStab:  Solving for Uy, Initial residual = 0.124328, Final residual = 0.000307839, No Iterations 1
DILUPBiCGStab:  Solving for Uz, Initial residual = 0.166356, Final residual = 0.000455484, No Iterations 1
GAMG:  Solving for p, Initial residual = 0.765032, Final residual = 0.00589296, No Iterations 10
time step continuity errors : sum local = 0.00571156, global = -6.20887e-05, cumulative = -0.00013592
DILUPBiCGStab:  Solving for omega, Initial residual = 0.283169, Final residual = 2.09696e-07, No Iterations 4
DILUPBiCGStab:  Solving for k, Initial residual = 0.348695, Final residual = 3.50516e-06, No Iterations 3
ExecutionTime = 0.49 s  ClockTime = 0 s

Time = 3

DILUPBiCGStab:  Solving for Ux, Initial residual = 0.226946, Final residual = 0.000577892, No Iterations 1
DILUPBiCGStab:  Solving for Uy, Initial residual = 0.257277, Final residual = 0.000654977, No Iterations 1
DILUPBiCGStab:  Solving for Uz, Initial residual = 0.199664, Final residual = 0.000537982, No Iterations 1
GAMG:  Solving for p, Initial residual = 0.478158, Final residual = 0.00148267, No Iterations 6
time step continuity errors : sum local = 0.00181685, global = 4.793e-06, cumulative = -0.000131127
DILUPBiCGStab:  Solving for omega, Initial residual = 0.137533, Final residual = 3.33821e-07, No Iterations 3
DILUPBiCGStab:  Solving for k, Initial residual = 0.262926, Final residual = 5.25092e-06, No Iterations 3
ExecutionTime = 0.6 s  ClockTime = 1 s

Time = 4

DILUPBiCGStab:  Solving for Ux, Initial residual = 0.217872, Final residual = 0.000572835, No Iterations 1
DILUPBiCGStab:  Solving for Uy, Initial residual = 0.201105, Final residual = 0.000489324, No Iterations 1
DILUPBiCGStab:  Solving for Uz, Initial residual = 0.195172, Final residual = 0.00052401, No Iterations 1
GAMG:  Solving for p, Initial residual = 0.344725, Final residual = 0.00311986, No Iterations 7
time step continuity errors : sum local = 0.00360448, global = -0.00013754, cumulative = -0.000268668
DILUPBiCGStab:  Solving for omega, Initial residual = 0.0912098, Final residual = 1.93127e-08, No Iterations 4
DILUPBiCGStab:  Solving for k, Initial residual = 0.258283, Final residual = 1.14707e-06, No Iterations 3
ExecutionTime = 0.73 s  ClockTime = 1 s

Time = 5

DILUPBiCGStab:  Solving for Ux, Initial residual = 0.218343, Final residual = 0.000624919, No Iterations 1
DILUPBiCGStab:  Solving for Uy, Initial residual = 0.159988, Final residual = 0.000358143, No Iterations 1
DILUPBiCGStab:  Solving for Uz, Initial residual = 0.153029, Final residual = 0.000426593, No Iterations 1
GAMG:  Solving for p, Initial residual = 0.39374, Final residual = 0.00275426, No Iterations 9
time step continuity errors : sum local = 0.0022316, global = -1.64418e-06, cumulative = -0.000270312
DILUPBiCGStab:  Solving for omega, Initial residual = 0.0955391, Final residual = 1.40889e-07, No Iterations 3
DILUPBiCGStab:  Solving for k, Initial residual = 0.29787, Final residual = 2.2236e-06, No Iterations 3
ExecutionTime = 0.83 s  ClockTime = 1 s

Time = 6

DILUPBiCGStab:  Solving for Ux, Initial residual = 0.221102, Final residual = 0.000525447, No Iterations 1
DILUPBiCGStab:  Solving for Uy, Initial residual = 0.124777, Final residual = 0.000220655, No Iterations 1
DILUPBiCGStab:  Solving for Uz, Initial residual = 0.124989, Final residual = 0.000289848, No Iterations 1
GAMG:  Solving for p, Initial residual = 0.369742, Final residual = 0.0014615, No Iterations 9
time step continuity errors : sum local = 0.0016238, global = -3.64842e-05, cumulative = -0.000306796
DILUPBiCGStab:  Solving for omega, Initial residual = 0.124754, Final residual = 4.30092e-07, No Iterations 3
DILUPBiCGStab:  Solving for k, Initial residual = 0.365398, Final residual = 7.31052e-06, No Iterations 3
ExecutionTime = 0.95 s  ClockTime = 1 s

Time = 7

DILUPBiCGStab:  Solving for Ux, Initial residual = 0.212888, Final residual = 0.000435507, No Iterations 1
DILUPBiCGStab:  Solving for Uy, Initial residual = 0.100291, Final residual = 0.000172148, No Iterations 1
DILUPBiCGStab:  Solving for Uz, Initial residual = 0.119216, Final residual = 0.000248331, No Iterations 1
GAMG:  Solving for p, Initial residual = 0.338427, Final residual = 0.00321607, No Iterations 5
time step continuity errors : sum local = 0.00491602, global = -3.89906e-05, cumulative = -0.000345787
DILUPBiCGStab:  Solving for omega, Initial residual = 0.159989, Final residual = 1.13625e-07, No Iterations 3
DILUPBiCGStab:  Solving for k, Initial residual = 0.432295, Final residual = 4.44169e-06, No Iterations 3
ExecutionTime = 1.05 s  ClockTime = 1 s

Time = 8

DILUPBiCGStab:  Solving for Ux, Initial residual = 0.183959, Final residual = 0.000327129, No Iterations 1
DILUPBiCGStab:  Solving for Uy, Initial residual = 0.110299, Final residual = 0.000171348, No Iterations 1
DILUPBiCGStab:  Solving for Uz, Initial residual = 0.136556, Final residual = 0.000248221, No Iterations 1
GAMG:  Solving for p, Initial residual = 0.338736, Final residual = 0.00299094, No Iterations 6
time step continuity errors : sum local = 0.00503519, global = -0.000123676, cumulative = -0.000469463
DILUPBiCGStab:  Solving for omega, Initial residual = 0.174298, Final residual = 5.60396e-07, No Iterations 3
DILUPBiCGStab:  Solving for k, Initial residual = 0.409516, Final residual = 2.35306e-06, No Iterations 3
ExecutionTime = 1.16 s  ClockTime = 1 s

Time = 9

DILUPBiCGStab:  Solving for Ux, Initial residual = 0.156523, Final residual = 0.000287643, No Iterations 1
DILUPBiCGStab:  Solving for Uy, Initial residual = 0.136547, Final residual = 0.000239476, No Iterations 1
DILUPBiCGStab:  Solving for Uz, Initial residual = 0.165594, Final residual = 0.000317683, No Iterations 1
GAMG:  Solving for p, Initial residual = 0.349131, Final residual = 0.00279603, No Iterations 5
time step continuity errors : sum local = 0.00480089, global = -0.000178699, cumulative = -0.000648162
DILUPBiCGStab:  Solving for omega, Initial residual = 0.159751, Final residual = 1.08073e-07, No Iterations 3
DILUPBiCGStab:  Solving for k, Initial residual = 0.319646, Final residual = 9.75277e-06, No Iterations 2
ExecutionTime = 1.26 s  ClockTime = 1 s

Time = 10

DILUPBiCGStab:  Solving for Ux, Initial residual = 0.137637, Final residual = 0.000235153, No Iterations 1
DILUPBiCGStab:  Solving for Uy, Initial residual = 0.152598, Final residual = 0.000279085, No Iterations 1
DILUPBiCGStab:  Solving for Uz, Initial residual = 0.176435, Final residual = 0.000271074, No Iterations 1
GAMG:  Solving for p, Initial residual = 0.365023, Final residual = 0.00144546, No Iterations 7
time step continuity errors : sum local = 0.00230375, global = -3.80552e-05, cumulative = -0.000686217
DILUPBiCGStab:  Solving for omega, Initial residual = 0.123041, Final residual = 7.06929e-07, No Iterations 2
DILUPBiCGStab:  Solving for k, Initial residual = 0.275008, Final residual = 4.41873e-06, No Iterations 2
ExecutionTime = 1.36 s  ClockTime = 1 s

Time = 11

DILUPBiCGStab:  Solving for Ux, Initial residual = 0.149999, Final residual = 0.000273607, No Iterations 1
DILUPBiCGStab:  Solving for Uy, Initial residual = 0.165531, Final residual = 0.000305754, No Iterations 1
DILUPBiCGStab:  Solving for Uz, Initial residual = 0.169607, Final residual = 0.000310221, No Iterations 1
GAMG:  Solving for p, Initial residual = 0.437841, Final residual = 0.00161983, No Iterations 6
time step continuity errors : sum local = 0.0022088, global = -8.92439e-07, cumulative = -0.000687109
DILUPBiCGStab:  Solving for omega, Initial residual = 0.10494, Final residual = 4.4111e-07, No Iterations 2
DILUPBiCGStab:  Solving for k, Initial residual = 0.260109, Final residual = 1.91688e-07, No Iterations 3
ExecutionTime = 1.46 s  ClockTime = 1 s

Time = 12

DILUPBiCGStab:  Solving for Ux, Initial residual = 0.157116, Final residual = 0.000270624, No Iterations 1
DILUPBiCGStab:  Solving for Uy, Initial residual = 0.162447, Final residual = 0.000290303, No Iterations 1
DILUPBiCGStab:  Solving for Uz, Initial residual = 0.172575, Final residual = 0.00027287, No Iterations 1
GAMG:  Solving for p, Initial residual = 0.526389, Final residual = 0.00401356, No Iterations 5
time step continuity errors : sum local = 0.00427484, global = -4.42495e-05, cumulative = -0.000731359
DILUPBiCGStab:  Solving for omega, Initial residual = 0.0771802, Final residual = 3.61935e-07, No Iterations 2
DILUPBiCGStab:  Solving for k, Initial residual = 0.21318, Final residual = 4.40721e-06, No Iterations 2
ExecutionTime = 1.56 s  ClockTime = 2 s

Time = 13

DILUPBiCGStab:  Solving for Ux, Initial residual = 0.146687, Final residual = 0.000257498, No Iterations 1
DILUPBiCGStab:  Solving for Uy, Initial residual = 0.1581, Final residual = 0.00029344, No Iterations 1
DILUPBiCGStab:  Solving for Uz, Initial residual = 0.163425, Final residual = 0.000275018, No Iterations 1
GAMG:  Solving for p, Initial residual = 0.574855, Final residual = 0.00270922, No Iterations 5
time step continuity errors : sum local = 0.00241269, global = -2.81812e-05, cumulative = -0.00075954
DILUPBiCGStab:  Solving for omega, Initial residual = 0.0631841, Final residual = 1.83534e-07, No Iterations 2
DILUPBiCGStab:  Solving for k, Initial residual = 0.187584, Final residual = 2.59509e-06, No Iterations 2
ExecutionTime = 1.65 s  ClockTime = 2 s

Time = 14

DILUPBiCGStab:  Solving for Ux, Initial residual = 0.129414, Final residual = 0.00023956, No Iterations 1
DILUPBiCGStab:  Solving for Uy, Initial residual = 0.146047, Final residual = 0.00026909, No Iterations 1
DILUPBiCGStab:  Solving for Uz, Initial residual = 0.162378, Final residual = 0.000282994, No Iterations 1
GAMG:  Solving for p, Initial residual = 0.535235, Final residual = 0.00486944, No Iterations 5
time step continuity errors : sum local = 0.00418146, global = 5.4981e-05, cumulative = -0.000704559
DILUPBiCGStab:  Solving for omega, Initial residual = 0.0545521, Final residual = 7.64954e-09, No Iterations 3
DILUPBiCGStab:  Solving for k, Initial residual = 0.168432, Final residual = 1.39123e-06, No Iterations 2
ExecutionTime = 1.74 s  ClockTime = 2 s

Time = 15

DILUPBiCGStab:  Solving for Ux, Initial residual = 0.116517, Final residual = 0.000186258, No Iterations 1
DILUPBiCGStab:  Solving for Uy, Initial residual = 0.145269, Final residual = 0.000237422, No Iterations 1
DILUPBiCGStab:  Solving for Uz, Initial residual = 0.159584, Final residual = 0.000258746, No Iterations 1
GAMG:  Solving for p, Initial residual = 0.488307, Final residual = 0.00330796, No Iterations 5
time step continuity errors : sum local = 0.00290941, global = 4.64478e-05, cumulative = -0.000658111
DILUPBiCGStab:  Solving for omega, Initial residual = 0.0523575, Final residual = 1.25365e-07, No Iterations 2
DILUPBiCGStab:  Solving for k, Initial residual = 0.149054, Final residual = 1.09872e-06, No Iterations 2
ExecutionTime = 1.86 s  ClockTime = 2 s

Time = 16

DILUPBiCGStab:  Solving for Ux, Initial residual = 0.112094, Final residual = 0.000169697, No Iterations 1
DILUPBiCGStab:  Solving for Uy, Initial residual = 0.146087, Final residual = 0.000261713, No Iterations 1
DILUPBiCGStab:  Solving for Uz, Initial residual = 0.146543, Final residual = 0.000267939, No Iterations 1
GAMG:  Solving for p, Initial residual = 0.452896, Final residual = 0.00319698, No Iterations 5
time step continuity errors : sum local = 0.00284301, global = 4.07905e-05, cumulative = -0.000617321
DILUPBiCGStab:  Solving for omega, Initial residual = 0.0491745, Final residual = 2.27206e-07, No Iterations 2
DILUPBiCGStab:  Solving for k, Initial residual = 0.130118, Final residual = 1.07494e-06, No Iterations 2
ExecutionTime = 1.95 s  ClockTime = 2 s

Time = 17

DILUPBiCGStab:  Solving for Ux, Initial residual = 0.110735, Final residual = 0.000164672, No Iterations 1
DILUPBiCGStab:  Solving for Uy, Initial residual = 0.147083, Final residual = 0.000253839, No Iterations 1
DILUPBiCGStab:  Solving for Uz, Initial residual = 0.138098, Final residual = 0.000258603, No Iterations 1
GAMG:  Solving for p, Initial residual = 0.41755, Final residual = 0.00220037, No Iterations 5
time step continuity errors : sum local = 0.0019979, global = 4.85479e-05, cumulative = -0.000568773
DILUPBiCGStab:  Solving for omega, Initial residual = 0.0453014, Final residual = 1.87448e-07, No Iterations 2
DILUPBiCGStab:  Solving for k, Initial residual = 0.115857, Final residual = 1.00127e-06, No Iterations 2
ExecutionTime = 2.05 s  ClockTime = 2 s

Time = 18

DILUPBiCGStab:  Solving for Ux, Initial residual = 0.109164, Final residual = 0.000165615, No Iterations 1
DILUPBiCGStab:  Solving for Uy, Initial residual = 0.148418, Final residual = 0.000216781, No Iterations 1
DILUPBiCGStab:  Solving for Uz, Initial residual = 0.135558, Final residual = 0.000227022, No Iterations 1
GAMG:  Solving for p, Initial residual = 0.390422, Final residual = 0.00131539, No Iterations 5
time step continuity errors : sum local = 0.00120772, global = 4.75685e-06, cumulative = -0.000564016
DILUPBiCGStab:  Solving for omega, Initial residual = 0.0429931, Final residual = 2.90487e-07, No Iterations 2
DILUPBiCGStab:  Solving for k, Initial residual = 0.102149, Final residual = 8.6418e-07, No Iterations 2
ExecutionTime = 2.13 s  ClockTime = 2 s

Time = 19

DILUPBiCGStab:  Solving for Ux, Initial residual = 0.107695, Final residual = 0.000164673, No Iterations 1
DILUPBiCGStab:  Solving for Uy, Initial residual = 0.14995, Final residual = 0.000247031, No Iterations 1
DILUPBiCGStab:  Solving for Uz, Initial residual = 0.140767, Final residual = 0.000226487, No Iterations 1
GAMG:  Solving for p, Initial residual = 0.372908, Final residual = 0.00305429, No Iterations 4
time step continuity errors : sum local = 0.00278021, global = -1.5413e-05, cumulative = -0.000579429
DILUPBiCGStab:  Solving for omega, Initial residual = 0.0420199, Final residual = 3.41748e-07, No Iterations 2
DILUPBiCGStab:  Solving for k, Initial residual = 0.0974242, Final residual = 7.92917e-07, No Iterations 2
ExecutionTime = 2.23 s  ClockTime = 2 s

Time = 20

DILUPBiCGStab:  Solving for Ux, Initial residual = 0.10233, Final residual = 0.000156235, No Iterations 1
DILUPBiCGStab:  Solving for Uy, Initial residual = 0.152065, Final residual = 0.000260636, No Iterations 1
DILUPBiCGStab:  Solving for Uz, Initial residual = 0.138901, Final residual = 0.00023336, No Iterations 1
GAMG:  Solving for p, Initial residual = 0.383653, Final residual = 0.00294235, No Iterations 4
time step continuity errors : sum local = 0.0025377, global = -3.4909e-05, cumulative = -0.000614338
DILUPBiCGStab:  Solving for omega, Initial residual = 0.0408809, Final residual = 3.31209e-07, No Iterations 2
DILUPBiCGStab:  Solving for k, Initial residual = 0.0925194, Final residual = 8.89136e-07, No Iterations 2
ExecutionTime = 2.32 s  ClockTime = 2 s

Time = 21

DILUPBiCGStab:  Solving for Ux, Initial residual = 0.0961173, Final residual = 0.000148313, No Iterations 1
DILUPBiCGStab:  Solving for Uy, Initial residual = 0.15133, Final residual = 0.000260952, No Iterations 1
DILUPBiCGStab:  Solving for Uz, Initial residual = 0.135855, Final residual = 0.00022847, No Iterations 1
GAMG:  Solving for p, Initial residual = 0.40723, Final residual = 0.00303108, No Iterations 4
time step continuity errors : sum local = 0.00244423, global = -3.286e-05, cumulative = -0.000647198
DILUPBiCGStab:  Solving for omega, Initial residual = 0.038778, Final residual = 3.95104e-07, No Iterations 2
DILUPBiCGStab:  Solving for k, Initial residual = 0.0878326, Final residual = 1.15468e-07, No Iterations 3
ExecutionTime = 2.42 s  ClockTime = 2 s

Time = 22

DILUPBiCGStab:  Solving for Ux, Initial residual = 0.0895286, Final residual = 0.000148496, No Iterations 1
DILUPBiCGStab:  Solving for Uy, Initial residual = 0.147286, Final residual = 0.000266427, No Iterations 1
DILUPBiCGStab:  Solving for Uz, Initial residual = 0.131843, Final residual = 0.000221823, No Iterations 1
GAMG:  Solving for p, Initial residual = 0.420363, Final residual = 0.00291936, No Iterations 4
time step continuity errors : sum local = 0.00219183, global = -2.19439e-05, cumulative = -0.000669142
DILUPBiCGStab:  Solving for omega, Initial residual = 0.0369776, Final residual = 3.94015e-07, No Iterations 2
DILUPBiCGStab:  Solving for k, Initial residual = 0.0833482, Final residual = 1.43334e-06, No Iterations 2
ExecutionTime = 2.51 s  ClockTime = 3 s

Time = 23

DILUPBiCGStab:  Solving for Ux, Initial residual = 0.0843862, Final residual = 0.000150515, No Iterations 1
DILUPBiCGStab:  Solving for Uy, Initial residual = 0.147798, Final residual = 0.000277264, No Iterations 1
DILUPBiCGStab:  Solving for Uz, Initial residual = 0.125676, Final residual = 0.000203044, No Iterations 1
GAMG:  Solving for p, Initial residual = 0.430263, Final residual = 0.00258064, No Iterations 4
time step continuity errors : sum local = 0.00177667, global = -6.77751e-06, cumulative = -0.000675919
DILUPBiCGStab:  Solving for omega, Initial residual = 0.035134, Final residual = 4.05381e-07, No Iterations 2
DILUPBiCGStab:  Solving for k, Initial residual = 0.0815822, Final residual = 1.69953e-06, No Iterations 2
ExecutionTime = 2.6 s  ClockTime = 3 s

Time = 24

DILUPBiCGStab:  Solving for Ux, Initial residual = 0.0780792, Final residual = 0.000147605, No Iterations 1
DILUPBiCGStab:  Solving for Uy, Initial residual = 0.146865, Final residual = 0.000282207, No Iterations 1
DILUPBiCGStab:  Solving for Uz, Initial residual = 0.118907, Final residual = 0.000198079, No Iterations 1
GAMG:  Solving for p, Initial residual = 0.424172, Final residual = 0.00392192, No Iterations 3
time step continuity errors : sum local = 0.00245592, global = 1.38643e-05, cumulative = -0.000662055
DILUPBiCGStab:  Solving for omega, Initial residual = 0.0327599, Final residual = 3.62104e-07, No Iterations 2
DILUPBiCGStab:  Solving for k, Initial residual = 0.0793253, Final residual = 1.46233e-06, No Iterations 2
ExecutionTime = 2.7 s  ClockTime = 3 s

Time = 25

DILUPBiCGStab:  Solving for Ux, Initial residual = 0.0710129, Final residual = 0.000136125, No Iterations 1
DILUPBiCGStab:  Solving for Uy, Initial residual = 0.149101, Final residual = 0.000299543, No Iterations 1
DILUPBiCGStab:  Solving for Uz, Initial residual = 0.114126, Final residual = 0.000202756, No Iterations 1
GAMG:  Solving for p, Initial residual = 0.412071, Final residual = 0.00396419, No Iterations 4
time step continuity errors : sum local = 0.00225914, global = -1.03943e-06, cumulative = -0.000663094
DILUPBiCGStab:  Solving for omega, Initial residual = 0.0304535, Final residual = 3.6772e-07, No Iterations 2
DILUPBiCGStab:  Solving for k, Initial residual = 0.076886, Final residual = 1.12396e-06, No Iterations 2
ExecutionTime = 2.8 s  ClockTime = 3 s

Time = 26

DILUPBiCGStab:  Solving for Ux, Initial residual = 0.0642304, Final residual = 0.000120335, No Iterations 1
DILUPBiCGStab:  Solving for Uy, Initial residual = 0.149629, Final residual = 0.000314614, No Iterations 1
DILUPBiCGStab:  Solving for Uz, Initial residual = 0.107189, Final residual = 0.000195356, No Iterations 1
GAMG:  Solving for p, Initial residual = 0.388542, Final residual = 0.00139568, No Iterations 5
time step continuity errors : sum local = 0.000729748, global = 5.70318e-07, cumulative = -0.000662524
DILUPBiCGStab:  Solving for omega, Initial residual = 0.027952, Final residual = 3.72242e-07, No Iterations 2
DILUPBiCGStab:  Solving for k, Initial residual = 0.0729396, Final residual = 1.15295e-06, No Iterations 2
ExecutionTime = 2.9 s  ClockTime = 3 s

Time = 27

DILUPBiCGStab:  Solving for Ux, Initial residual = 0.0580127, Final residual = 0.000111709, No Iterations 1
DILUPBiCGStab:  Solving for Uy, Initial residual = 0.143351, Final residual = 0.000308013, No Iterations 1
DILUPBiCGStab:  Solving for Uz, Initial residual = 0.0990236, Final residual = 0.000189896, No Iterations 1
GAMG:  Solving for p, Initial residual = 0.362337, Final residual = 0.00106153, No Iterations 5
time step continuity errors : sum local = 0.000511343, global = -6.60253e-07, cumulative = -0.000663184
DILUPBiCGStab:  Solving for omega, Initial residual = 0.0255851, Final residual = 3.90138e-07, No Iterations 2
DILUPBiCGStab:  Solving for k, Initial residual = 0.0693192, Final residual = 1.24496e-06, No Iterations 2
ExecutionTime = 3.02 s  ClockTime = 3 s

Time = 28

DILUPBiCGStab:  Solving for Ux, Initial residual = 0.0530035, Final residual = 0.000108234, No Iterations 1
DILUPBiCGStab:  Solving for Uy, Initial residual = 0.135627, Final residual = 0.000304642, No Iterations 1
DILUPBiCGStab:  Solving for Uz, Initial residual = 0.0910216, Final residual = 0.000180381, No Iterations 1
GAMG:  Solving for p, Initial residual = 0.346004, Final residual = 0.0024774, No Iterations 4
time step continuity errors : sum local = 0.00110421, global = 8.15162e-06, cumulative = -0.000655033
DILUPBiCGStab:  Solving for omega, Initial residual = 0.0233195, Final residual = 4.09731e-07, No Iterations 2
DILUPBiCGStab:  Solving for k, Initial residual = 0.0660784, Final residual = 1.31227e-06, No Iterations 2
ExecutionTime = 3.14 s  ClockTime = 3 s

Time = 29

DILUPBiCGStab:  Solving for Ux, Initial residual = 0.0482976, Final residual = 0.000102691, No Iterations 1
DILUPBiCGStab:  Solving for Uy, Initial residual = 0.130824, Final residual = 0.000302649, No Iterations 1
DILUPBiCGStab:  Solving for Uz, Initial residual = 0.0847403, Final residual = 0.000181924, No Iterations 1
GAMG:  Solving for p, Initial residual = 0.325823, Final residual = 0.00215698, No Iterations 4
time step continuity errors : sum local = 0.000890947, global = -1.6923e-06, cumulative = -0.000656725
DILUPBiCGStab:  Solving for omega, Initial residual = 0.0211254, Final residual = 3.96239e-07, No Iterations 2
DILUPBiCGStab:  Solving for k, Initial residual = 0.0628927, Final residual = 1.28943e-06, No Iterations 2
ExecutionTime = 3.25 s  ClockTime = 3 s

Time = 30

DILUPBiCGStab:  Solving for Ux, Initial residual = 0.0435604, Final residual = 9.35926e-05, No Iterations 1
DILUPBiCGStab:  Solving for Uy, Initial residual = 0.128218, Final residual = 0.000311569, No Iterations 1
DILUPBiCGStab:  Solving for Uz, Initial residual = 0.0807554, Final residual = 0.000183225, No Iterations 1
GAMG:  Solving for p, Initial residual = 0.300844, Final residual = 0.00213683, No Iterations 4
time step continuity errors : sum local = 0.000816476, global = -2.8465e-06, cumulative = -0.000659572
DILUPBiCGStab:  Solving for omega, Initial residual = 0.0191919, Final residual = 3.86385e-07, No Iterations 2
DILUPBiCGStab:  Solving for k, Initial residual = 0.0598658, Final residual = 1.28088e-06, No Iterations 2
ExecutionTime = 3.35 s  ClockTime = 3 s

Time = 31

DILUPBiCGStab:  Solving for Ux, Initial residual = 0.039717, Final residual = 8.72505e-05, No Iterations 1
DILUPBiCGStab:  Solving for Uy, Initial residual = 0.123812, Final residual = 0.000308751, No Iterations 1
DILUPBiCGStab:  Solving for Uz, Initial residual = 0.0771753, Final residual = 0.000181757, No Iterations 1
GAMG:  Solving for p, Initial residual = 0.28076, Final residual = 0.0020839, No Iterations 4
time step continuity errors : sum local = 0.000733766, global = -5.30843e-06, cumulative = -0.00066488
DILUPBiCGStab:  Solving for omega, Initial residual = 0.0173565, Final residual = 3.81569e-07, No Iterations 2
DILUPBiCGStab:  Solving for k, Initial residual = 0.0570623, Final residual = 1.27148e-06, No Iterations 2
ExecutionTime = 3.46 s  ClockTime = 3 s

Time = 32

DILUPBiCGStab:  Solving for Ux, Initial residual = 0.0364394, Final residual = 8.44747e-05, No Iterations 1
DILUPBiCGStab:  Solving for Uy, Initial residual = 0.118546, Final residual = 0.000294128, No Iterations 1
DILUPBiCGStab:  Solving for Uz, Initial residual = 0.0743249, Final residual = 0.00018436, No Iterations 1
GAMG:  Solving for p, Initial residual = 0.26377, Final residual = 0.0020965, No Iterations 4
time step continuity errors : sum local = 0.000683041, global = -3.10797e-06, cumulative = -0.000667988
DILUPBiCGStab:  Solving for omega, Initial residual = 0.0158181, Final residual = 3.62251e-07, No Iterations 2
DILUPBiCGStab:  Solving for k, Initial residual = 0.0547188, Final residual = 1.26985e-06, No Iterations 2
ExecutionTime = 3.61 s  ClockTime = 4 s

Time = 33

DILUPBiCGStab:  Solving for Ux, Initial residual = 0.0339066, Final residual = 8.3537e-05, No Iterations 1
DILUPBiCGStab:  Solving for Uy, Initial residual = 0.113067, Final residual = 0.000286793, No Iterations 1
DILUPBiCGStab:  Solving for Uz, Initial residual = 0.0710182, Final residual = 0.000181659, No Iterations 1
GAMG:  Solving for p, Initial residual = 0.249545, Final residual = 0.0021729, No Iterations 4
time step continuity errors : sum local = 0.000657145, global = 3.4055e-07, cumulative = -0.000667647
DILUPBiCGStab:  Solving for omega, Initial residual = 0.0144515, Final residual = 3.27645e-07, No Iterations 2
DILUPBiCGStab:  Solving for k, Initial residual = 0.0524263, Final residual = 1.26817e-06, No Iterations 2
ExecutionTime = 3.72 s  ClockTime = 4 s

Time = 34

DILUPBiCGStab:  Solving for Ux, Initial residual = 0.032416, Final residual = 8.37952e-05, No Iterations 1
DILUPBiCGStab:  Solving for Uy, Initial residual = 0.106843, Final residual = 0.000278297, No Iterations 1
DILUPBiCGStab:  Solving for Uz, Initial residual = 0.0668964, Final residual = 0.000174749, No Iterations 1
GAMG:  Solving for p, Initial residual = 0.234933, Final residual = 0.00186674, No Iterations 5
time step continuity errors : sum local = 0.0005236, global = -2.01205e-06, cumulative = -0.000669659
DILUPBiCGStab:  Solving for omega, Initial residual = 0.0133195, Final residual = 2.88745e-07, No Iterations 2
DILUPBiCGStab:  Solving for k, Initial residual = 0.0504633, Final residual = 1.25354e-06, No Iterations 2
ExecutionTime = 3.82 s  ClockTime = 4 s

Time = 35

DILUPBiCGStab:  Solving for Ux, Initial residual = 0.0311569, Final residual = 8.6712e-05, No Iterations 1
DILUPBiCGStab:  Solving for Uy, Initial residual = 0.101052, Final residual = 0.000271588, No Iterations 1
DILUPBiCGStab:  Solving for Uz, Initial residual = 0.063072, Final residual = 0.000169866, No Iterations 1
GAMG:  Solving for p, Initial residual = 0.223874, Final residual = 0.000814859, No Iterations 5
time step continuity errors : sum local = 0.000212467, global = -5.42093e-07, cumulative = -0.000670202
DILUPBiCGStab:  Solving for omega, Initial residual = 0.0123726, Final residual = 2.63762e-07, No Iterations 2
DILUPBiCGStab:  Solving for k, Initial residual = 0.0488184, Final residual = 1.26268e-06, No Iterations 2
ExecutionTime = 3.95 s  ClockTime = 4 s

Time = 36

DILUPBiCGStab:  Solving for Ux, Initial residual = 0.0304027, Final residual = 8.80792e-05, No Iterations 1
DILUPBiCGStab:  Solving for Uy, Initial residual = 0.095417, Final residual = 0.000257927, No Iterations 1
DILUPBiCGStab:  Solving for Uz, Initial residual = 0.0589204, Final residual = 0.000163747, No Iterations 1
GAMG:  Solving for p, Initial residual = 0.216034, Final residual = 0.000845132, No Iterations 5
time step continuity errors : sum local = 0.000208158, global = -1.44724e-06, cumulative = -0.000671649
DILUPBiCGStab:  Solving for omega, Initial residual = 0.0115244, Final residual = 2.55704e-07, No Iterations 2
DILUPBiCGStab:  Solving for k, Initial residual = 0.0472905, Final residual = 1.25447e-06, No Iterations 2
ExecutionTime = 4.08 s  ClockTime = 4 s

Time = 37

DILUPBiCGStab:  Solving for Ux, Initial residual = 0.0298266, Final residual = 8.96778e-05, No Iterations 1
DILUPBiCGStab:  Solving for Uy, Initial residual = 0.0932039, Final residual = 0.000250528, No Iterations 1
DILUPBiCGStab:  Solving for Uz, Initial residual = 0.0553921, Final residual = 0.00016068, No Iterations 1
GAMG:  Solving for p, Initial residual = 0.211331, Final residual = 0.00072995, No Iterations 5
time step continuity errors : sum local = 0.000171751, global = -4.98066e-07, cumulative = -0.000672147
DILUPBiCGStab:  Solving for omega, Initial residual = 0.0107513, Final residual = 2.63667e-07, No Iterations 2
DILUPBiCGStab:  Solving for k, Initial residual = 0.0456292, Final residual = 1.25798e-06, No Iterations 2
ExecutionTime = 4.2 s  ClockTime = 4 s

Time = 38

DILUPBiCGStab:  Solving for Ux, Initial residual = 0.0293167, Final residual = 9.04443e-05, No Iterations 1
DILUPBiCGStab:  Solving for Uy, Initial residual = 0.0914294, Final residual = 0.000249873, No Iterations 1
DILUPBiCGStab:  Solving for Uz, Initial residual = 0.0529731, Final residual = 0.000161424, No Iterations 1
GAMG:  Solving for p, Initial residual = 0.205668, Final residual = 0.000680359, No Iterations 5
time step continuity errors : sum local = 0.000154598, global = 1.99044e-07, cumulative = -0.000671948
DILUPBiCGStab:  Solving for omega, Initial residual = 0.0100072, Final residual = 2.6617e-07, No Iterations 2
DILUPBiCGStab:  Solving for k, Initial residual = 0.0441378, Final residual = 1.2541e-06, No Iterations 2
ExecutionTime = 4.31 s  ClockTime = 4 s

Time = 39

DILUPBiCGStab:  Solving for Ux, Initial residual = 0.0288324, Final residual = 8.99151e-05, No Iterations 1
DILUPBiCGStab:  Solving for Uy, Initial residual = 0.090691, Final residual = 0.000251081, No Iterations 1
DILUPBiCGStab:  Solving for Uz, Initial residual = 0.0515341, Final residual = 0.000161136, No Iterations 1
GAMG:  Solving for p, Initial residual = 0.200577, Final residual = 0.000897415, No Iterations 5
time step continuity errors : sum local = 0.000197235, global = 1.63429e-07, cumulative = -0.000671784
DILUPBiCGStab:  Solving for omega, Initial residual = 0.00934898, Final residual = 2.74359e-07, No Iterations 2
DILUPBiCGStab:  Solving for k, Initial residual = 0.0428705, Final residual = 1.25484e-06, No Iterations 2
ExecutionTime = 4.42 s  ClockTime = 4 s

Time = 40

DILUPBiCGStab:  Solving for Ux, Initial residual = 0.028375, Final residual = 8.87053e-05, No Iterations 1
DILUPBiCGStab:  Solving for Uy, Initial residual = 0.0897283, Final residual = 0.000251481, No Iterations 1
DILUPBiCGStab:  Solving for Uz, Initial residual = 0.0507222, Final residual = 0.000162432, No Iterations 1
GAMG:  Solving for p, Initial residual = 0.202843, Final residual = 0.000636698, No Iterations 6
time step continuity errors : sum local = 0.000135128, global = -8.96651e-07, cumulative = -0.000672681
DILUPBiCGStab:  Solving for omega, Initial residual = 0.00881995, Final residual = 2.83878e-07, No Iterations 2
DILUPBiCGStab:  Solving for k, Initial residual = 0.0417293, Final residual = 1.27615e-06, No Iterations 2
ExecutionTime = 4.52 s  ClockTime = 5 s

Time = 41

DILUPBiCGStab:  Solving for Ux, Initial residual = 0.0283683, Final residual = 8.65786e-05, No Iterations 1
DILUPBiCGStab:  Solving for Uy, Initial residual = 0.0893625, Final residual = 0.000251621, No Iterations 1
DILUPBiCGStab:  Solving for Uz, Initial residual = 0.0497383, Final residual = 0.000168042, No Iterations 1
GAMG:  Solving for p, Initial residual = 0.204288, Final residual = 0.00175928, No Iterations 4
time step continuity errors : sum local = 0.000354475, global = 7.46938e-07, cumulative = -0.000671934
DILUPBiCGStab:  Solving for omega, Initial residual = 0.00843722, Final residual = 2.97391e-07, No Iterations 2
DILUPBiCGStab:  Solving for k, Initial residual = 0.0406974, Final residual = 1.33374e-06, No Iterations 2
ExecutionTime = 4.64 s  ClockTime = 5 s

Time = 42

DILUPBiCGStab:  Solving for Ux, Initial residual = 0.0280489, Final residual = 8.49134e-05, No Iterations 1
DILUPBiCGStab:  Solving for Uy, Initial residual = 0.0881115, Final residual = 0.000247153, No Iterations 1
DILUPBiCGStab:  Solving for Uz, Initial residual = 0.0487426, Final residual = 0.000162778, No Iterations 1
GAMG:  Solving for p, Initial residual = 0.205612, Final residual = 0.00155577, No Iterations 4
time step continuity errors : sum local = 0.000299834, global = 2.11508e-06, cumulative = -0.000669819
DILUPBiCGStab:  Solving for omega, Initial residual = 0.00822059, Final residual = 3.14124e-07, No Iterations 2
DILUPBiCGStab:  Solving for k, Initial residual = 0.0398383, Final residual = 1.40722e-06, No Iterations 2
ExecutionTime = 4.73 s  ClockTime = 5 s

Time = 43

DILUPBiCGStab:  Solving for Ux, Initial residual = 0.0279693, Final residual = 8.31029e-05, No Iterations 1
DILUPBiCGStab:  Solving for Uy, Initial residual = 0.0886772, Final residual = 0.000243611, No Iterations 1
DILUPBiCGStab:  Solving for Uz, Initial residual = 0.0473958, Final residual = 0.000157163, No Iterations 1
GAMG:  Solving for p, Initial residual = 0.208236, Final residual = 0.00162301, No Iterations 4
time step continuity errors : sum local = 0.000296371, global = -2.05537e-06, cumulative = -0.000671874
DILUPBiCGStab:  Solving for omega, Initial residual = 0.00796923, Final residual = 3.36675e-07, No Iterations 2
DILUPBiCGStab:  Solving for k, Initial residual = 0.0393723, Final residual = 1.66901e-06, No Iterations 2
ExecutionTime = 4.82 s  ClockTime = 5 s

Time = 44

DILUPBiCGStab:  Solving for Ux, Initial residual = 0.027724, Final residual = 8.09491e-05, No Iterations 1
DILUPBiCGStab:  Solving for Uy, Initial residual = 0.0896747, Final residual = 0.000240904, No Iterations 1
DILUPBiCGStab:  Solving for Uz, Initial residual = 0.0460463, Final residual = 0.000157901, No Iterations 1
GAMG:  Solving for p, Initial residual = 0.210868, Final residual = 0.00181503, No Iterations 4
time step continuity errors : sum local = 0.000312549, global = -4.93771e-07, cumulative = -0.000672368
DILUPBiCGStab:  Solving for omega, Initial residual = 0.00766724, Final residual = 3.71574e-07, No Iterations 2
DILUPBiCGStab:  Solving for k, Initial residual = 0.0388968, Final residual = 2.52371e-06, No Iterations 2
ExecutionTime = 4.93 s  ClockTime = 5 s

Time = 45

DILUPBiCGStab:  Solving for Ux, Initial residual = 0.0273141, Final residual = 7.86518e-05, No Iterations 1
DILUPBiCGStab:  Solving for Uy, Initial residual = 0.0905587, Final residual = 0.000238112, No Iterations 1
DILUPBiCGStab:  Solving for Uz, Initial residual = 0.0445816, Final residual = 0.000154969, No Iterations 1
GAMG:  Solving for p, Initial residual = 0.218068, Final residual = 0.000788483, No Iterations 6
time step continuity errors : sum local = 0.000128334, global = -1.99286e-06, cumulative = -0.000674361
DILUPBiCGStab:  Solving for omega, Initial residual = 0.00744999, Final residual = 4.15713e-07, No Iterations 2
DILUPBiCGStab:  Solving for k, Initial residual = 0.0383994, Final residual = 4.0786e-06, No Iterations 2
ExecutionTime = 5.03 s  ClockTime = 5 s

Time = 46

DILUPBiCGStab:  Solving for Ux, Initial residual = 0.0270707, Final residual = 7.53501e-05, No Iterations 1
DILUPBiCGStab:  Solving for Uy, Initial residual = 0.0896916, Final residual = 0.000232656, No Iterations 1
DILUPBiCGStab:  Solving for Uz, Initial residual = 0.0434485, Final residual = 0.000149449, No Iterations 1
GAMG:  Solving for p, Initial residual = 0.227636, Final residual = 0.00140309, No Iterations 5
time step continuity errors : sum local = 0.000214494, global = -2.19146e-07, cumulative = -0.00067458
DILUPBiCGStab:  Solving for omega, Initial residual = 0.0072962, Final residual = 4.52756e-07, No Iterations 2
DILUPBiCGStab:  Solving for k, Initial residual = 0.0379033, Final residual = 2.85473e-07, No Iterations 3
ExecutionTime = 5.14 s  ClockTime = 5 s

Time = 47

DILUPBiCGStab:  Solving for Ux, Initial residual = 0.0264849, Final residual = 7.24066e-05, No Iterations 1
DILUPBiCGStab:  Solving for Uy, Initial residual = 0.0854998, Final residual = 0.000221352, No Iterations 1
DILUPBiCGStab:  Solving for Uz, Initial residual = 0.0431749, Final residual = 0.000145647, No Iterations 1
GAMG:  Solving for p, Initial residual = 0.230541, Final residual = 0.00176695, No Iterations 4
time step continuity errors : sum local = 0.000259584, global = -2.56086e-07, cumulative = -0.000674836
DILUPBiCGStab:  Solving for omega, Initial residual = 0.00718102, Final residual = 4.74576e-07, No Iterations 2
DILUPBiCGStab:  Solving for k, Initial residual = 0.03752, Final residual = 4.5905e-06, No Iterations 2
ExecutionTime = 5.25 s  ClockTime = 5 s

Time = 48

DILUPBiCGStab:  Solving for Ux, Initial residual = 0.0260726, Final residual = 6.86865e-05, No Iterations 1
DILUPBiCGStab:  Solving for Uy, Initial residual = 0.0839963, Final residual = 0.000209725, No Iterations 1
DILUPBiCGStab:  Solving for Uz, Initial residual = 0.0435841, Final residual = 0.000142732, No Iterations 1
GAMG:  Solving for p, Initial residual = 0.231063, Final residual = 0.00166596, No Iterations 4
time step continuity errors : sum local = 0.000238917, global = -3.64893e-08, cumulative = -0.000674873
DILUPBiCGStab:  Solving for omega, Initial residual = 0.00700811, Final residual = 4.76249e-07, No Iterations 2
DILUPBiCGStab:  Solving for k, Initial residual = 0.0370797, Final residual = 2.53599e-06, No Iterations 2
ExecutionTime = 5.37 s  ClockTime = 5 s

Time = 49

DILUPBiCGStab:  Solving for Ux, Initial residual = 0.0256923, Final residual = 6.40726e-05, No Iterations 1
DILUPBiCGStab:  Solving for Uy, Initial residual = 0.082707, Final residual = 0.000200596, No Iterations 1
DILUPBiCGStab:  Solving for Uz, Initial residual = 0.0446175, Final residual = 0.000142875, No Iterations 1
GAMG:  Solving for p, Initial residual = 0.237816, Final residual = 0.00162772, No Iterations 4
time step continuity errors : sum local = 0.000227609, global = 3.05249e-07, cumulative = -0.000674568
DILUPBiCGStab:  Solving for omega, Initial residual = 0.00677791, Final residual = 4.77803e-07, No Iterations 2
DILUPBiCGStab:  Solving for k, Initial residual = 0.0365011, Final residual = 2.14054e-06, No Iterations 2
ExecutionTime = 5.5 s  ClockTime = 6 s

Time = 50

DILUPBiCGStab:  Solving for Ux, Initial residual = 0.0250617, Final residual = 5.96246e-05, No Iterations 1
DILUPBiCGStab:  Solving for Uy, Initial residual = 0.0810279, Final residual = 0.000195548, No Iterations 1
DILUPBiCGStab:  Solving for Uz, Initial residual = 0.0458739, Final residual = 0.000144637, No Iterations 1
GAMG:  Solving for p, Initial residual = 0.243638, Final residual = 0.001759, No Iterations 4
time step continuity errors : sum local = 0.000239479, global = -1.48669e-06, cumulative = -0.000676054
DILUPBiCGStab:  Solving for omega, Initial residual = 0.006666, Final residual = 4.98276e-07, No Iterations 2
DILUPBiCGStab:  Solving for k, Initial residual = 0.0358518, Final residual = 1.98741e-06, No Iterations 2
ExecutionTime = 5.61 s  ClockTime = 6 s

Time = 51

DILUPBiCGStab:  Solving for Ux, Initial residual = 0.0242302, Final residual = 5.68402e-05, No Iterations 1
DILUPBiCGStab:  Solving for Uy, Initial residual = 0.0798468, Final residual = 0.000188134, No Iterations 1
DILUPBiCGStab:  Solving for Uz, Initial residual = 0.0473364, Final residual = 0.000145611, No Iterations 1
GAMG:  Solving for p, Initial residual = 0.243137, Final residual = 0.00202977, No Iterations 4
time step continuity errors : sum local = 0.000269264, global = -1.44842e-06, cumulative = -0.000677503
DILUPBiCGStab:  Solving for omega, Initial residual = 0.00657457, Final residual = 5.23368e-07, No Iterations 2
DILUPBiCGStab:  Solving for k, Initial residual = 0.0351102, Final residual = 2.01588e-06, No Iterations 2
ExecutionTime = 5.71 s  ClockTime = 6 s

Time = 52

DILUPBiCGStab:  Solving for Ux, Initial residual = 0.023347, Final residual = 5.67129e-05, No Iterations 1
DILUPBiCGStab:  Solving for Uy, Initial residual = 0.0772649, Final residual = 0.000178131, No Iterations 1
DILUPBiCGStab:  Solving for Uz, Initial residual = 0.0496471, Final residual = 0.000145609, No Iterations 1
GAMG:  Solving for p, Initial residual = 0.2429, Final residual = 0.00222801, No Iterations 4
time step continuity errors : sum local = 0.000287329, global = -1.33073e-06, cumulative = -0.000678833
DILUPBiCGStab:  Solving for omega, Initial residual = 0.00648197, Final residual = 5.16967e-07, No Iterations 2
DILUPBiCGStab:  Solving for k, Initial residual = 0.0345231, Final residual = 2.07207e-06, No Iterations 2
ExecutionTime = 5.81 s  ClockTime = 6 s

Time = 53

DILUPBiCGStab:  Solving for Ux, Initial residual = 0.0228862, Final residual = 5.60907e-05, No Iterations 1
DILUPBiCGStab:  Solving for Uy, Initial residual = 0.075862, Final residual = 0.000169701, No Iterations 1
DILUPBiCGStab:  Solving for Uz, Initial residual = 0.051766, Final residual = 0.000146401, No Iterations 1
GAMG:  Solving for p, Initial residual = 0.239019, Final residual = 0.000784903, No Iterations 5
time step continuity errors : sum local = 9.85926e-05, global = 2.17063e-07, cumulative = -0.000678616
DILUPBiCGStab:  Solving for omega, Initial residual = 0.00646999, Final residual = 4.84884e-07, No Iterations 2
DILUPBiCGStab:  Solving for k, Initial residual = 0.0338077, Final residual = 2.10947e-06, No Iterations 2
ExecutionTime = 5.93 s  ClockTime = 6 s

Time = 54

DILUPBiCGStab:  Solving for Ux, Initial residual = 0.0221404, Final residual = 5.44495e-05, No Iterations 1
DILUPBiCGStab:  Solving for Uy, Initial residual = 0.0743749, Final residual = 0.000162753, No Iterations 1
DILUPBiCGStab:  Solving for Uz, Initial residual = 0.0536142, Final residual = 0.000147623, No Iterations 1
GAMG:  Solving for p, Initial residual = 0.238973, Final residual = 0.00212524, No Iterations 3
time step continuity errors : sum local = 0.00025967, global = -6.77141e-09, cumulative = -0.000678623
DILUPBiCGStab:  Solving for omega, Initial residual = 0.00634624, Final residual = 4.44941e-07, No Iterations 2
DILUPBiCGStab:  Solving for k, Initial residual = 0.0328928, Final residual = 2.09082e-06, No Iterations 2
ExecutionTime = 6.02 s  ClockTime = 6 s

Time = 55

DILUPBiCGStab:  Solving for Ux, Initial residual = 0.0214372, Final residual = 5.3376e-05, No Iterations 1
DILUPBiCGStab:  Solving for Uy, Initial residual = 0.0728321, Final residual = 0.000157131, No Iterations 1
DILUPBiCGStab:  Solving for Uz, Initial residual = 0.0552043, Final residual = 0.000147188, No Iterations 1
GAMG:  Solving for p, Initial residual = 0.23383, Final residual = 0.00206167, No Iterations 3
time step continuity errors : sum local = 0.000250273, global = 4.86192e-07, cumulative = -0.000678137
DILUPBiCGStab:  Solving for omega, Initial residual = 0.00625591, Final residual = 3.92447e-07, No Iterations 2
DILUPBiCGStab:  Solving for k, Initial residual = 0.0319653, Final residual = 2.00962e-06, No Iterations 2
ExecutionTime = 6.13 s  ClockTime = 6 s

Time = 56

DILUPBiCGStab:  Solving for Ux, Initial residual = 0.0208366, Final residual = 5.29102e-05, No Iterations 1
DILUPBiCGStab:  Solving for Uy, Initial residual = 0.0720712, Final residual = 0.000150268, No Iterations 1
DILUPBiCGStab:  Solving for Uz, Initial residual = 0.0562721, Final residual = 0.000148691, No Iterations 1
GAMG:  Solving for p, Initial residual = 0.231541, Final residual = 0.00146153, No Iterations 4
time step continuity errors : sum local = 0.000174873, global = 4.677e-07, cumulative = -0.000677669
DILUPBiCGStab:  Solving for omega, Initial residual = 0.00628373, Final residual = 3.46666e-07, No Iterations 2
DILUPBiCGStab:  Solving for k, Initial residual = 0.0312848, Final residual = 1.91501e-06, No Iterations 2
ExecutionTime = 6.23 s  ClockTime = 6 s

Time = 57

DILUPBiCGStab:  Solving for Ux, Initial residual = 0.0203213, Final residual = 5.12434e-05, No Iterations 1
DILUPBiCGStab:  Solving for Uy, Initial residual = 0.0698086, Final residual = 0.000145361, No Iterations 1
DILUPBiCGStab:  Solving for Uz, Initial residual = 0.0574234, Final residual = 0.000147612, No Iterations 1
GAMG:  Solving for p, Initial residual = 0.227995, Final residual = 0.00152273, No Iterations 4
time step continuity errors : sum local = 0.000180013, global = -2.46205e-07, cumulative = -0.000677915
DILUPBiCGStab:  Solving for omega, Initial residual = 0.00635662, Final residual = 3.22868e-07, No Iterations 2
DILUPBiCGStab:  Solving for k, Initial residual = 0.0307471, Final residual = 1.81217e-06, No Iterations 2
ExecutionTime = 6.32 s  ClockTime = 6 s

Time = 58

DILUPBiCGStab:  Solving for Ux, Initial residual = 0.0199884, Final residual = 4.97451e-05, No Iterations 1
DILUPBiCGStab:  Solving for Uy, Initial residual = 0.0689297, Final residual = 0.000141466, No Iterations 1
DILUPBiCGStab:  Solving for Uz, Initial residual = 0.0589067, Final residual = 0.000142266, No Iterations 1
GAMG:  Solving for p, Initial residual = 0.228721, Final residual = 0.00163436, No Iterations 4
time step continuity errors : sum local = 0.000191275, global = -8.28821e-07, cumulative = -0.000678744
DILUPBiCGStab:  Solving for omega, Initial residual = 0.00651098, Final residual = 3.1724e-07, No Iterations 2
DILUPBiCGStab:  Solving for k, Initial residual = 0.0303338, Final residual = 1.68672e-06, No Iterations 2
ExecutionTime = 6.42 s  ClockTime = 6 s

Time = 59

DILUPBiCGStab:  Solving for Ux, Initial residual = 0.0198587, Final residual = 4.85456e-05, No Iterations 1
DILUPBiCGStab:  Solving for Uy, Initial residual = 0.0686104, Final residual = 0.000137725, No Iterations 1
DILUPBiCGStab:  Solving for Uz, Initial residual = 0.059586, Final residual = 0.000139546, No Iterations 1
GAMG:  Solving for p, Initial residual = 0.231018, Final residual = 0.00195529, No Iterations 4
time step continuity errors : sum local = 0.000226169, global = -1.03409e-06, cumulative = -0.000679778
DILUPBiCGStab:  Solving for omega, Initial residual = 0.00667054, Final residual = 3.11167e-07, No Iterations 2
DILUPBiCGStab:  Solving for k, Initial residual = 0.0301458, Final residual = 1.57627e-06, No Iterations 2
ExecutionTime = 6.52 s  ClockTime = 7 s

Time = 60

DILUPBiCGStab:  Solving for Ux, Initial residual = 0.0197805, Final residual = 4.75278e-05, No Iterations 1
DILUPBiCGStab:  Solving for Uy, Initial residual = 0.0687587, Final residual = 0.000131789, No Iterations 1
DILUPBiCGStab:  Solving for Uz, Initial residual = 0.0598195, Final residual = 0.000139398, No Iterations 1
GAMG:  Solving for p, Initial residual = 0.22876, Final residual = 0.00204546, No Iterations 4
time step continuity errors : sum local = 0.000234703, global = 7.21128e-07, cumulative = -0.000679057
DILUPBiCGStab:  Solving for omega, Initial residual = 0.00677068, Final residual = 2.89193e-07, No Iterations 2
DILUPBiCGStab:  Solving for k, Initial residual = 0.0300902, Final residual = 1.49781e-06, No Iterations 2
ExecutionTime = 6.62 s  ClockTime = 7 s

Time = 61

DILUPBiCGStab:  Solving for Ux, Initial residual = 0.0195307, Final residual = 4.56306e-05, No Iterations 1
DILUPBiCGStab:  Solving for Uy, Initial residual = 0.0688618, Final residual = 0.000128736, No Iterations 1
DILUPBiCGStab:  Solving for Uz, Initial residual = 0.0601978, Final residual = 0.000136219, No Iterations 1
GAMG:  Solving for p, Initial residual = 0.229173, Final residual = 0.00143241, No Iterations 4
time step continuity errors : sum local = 0.000161511, global = 1.98361e-07, cumulative = -0.000678859
DILUPBiCGStab:  Solving for omega, Initial residual = 0.00685732, Final residual = 2.70155e-07, No Iterations 2
DILUPBiCGStab:  Solving for k, Initial residual = 0.0300422, Final residual = 1.45319e-06, No Iterations 2
ExecutionTime = 6.73 s  ClockTime = 7 s

Time = 62

DILUPBiCGStab:  Solving for Ux, Initial residual = 0.019185, Final residual = 4.3377e-05, No Iterations 1
DILUPBiCGStab:  Solving for Uy, Initial residual = 0.069367, Final residual = 0.000127842, No Iterations 1
DILUPBiCGStab:  Solving for Uz, Initial residual = 0.0600924, Final residual = 0.000131263, No Iterations 1
GAMG:  Solving for p, Initial residual = 0.229242, Final residual = 0.00116751, No Iterations 4
time step continuity errors : sum local = 0.000128394, global = 4.56554e-08, cumulative = -0.000678813
DILUPBiCGStab:  Solving for omega, Initial residual = 0.00695119, Final residual = 2.62994e-07, No Iterations 2
DILUPBiCGStab:  Solving for k, Initial residual = 0.0300603, Final residual = 1.41897e-06, No Iterations 2
ExecutionTime = 6.83 s  ClockTime = 7 s

Time = 63

DILUPBiCGStab:  Solving for Ux, Initial residual = 0.018855, Final residual = 4.09333e-05, No Iterations 1
DILUPBiCGStab:  Solving for Uy, Initial residual = 0.0707234, Final residual = 0.000126141, No Iterations 1
DILUPBiCGStab:  Solving for Uz, Initial residual = 0.0592134, Final residual = 0.000124797, No Iterations 1
GAMG:  Solving for p, Initial residual = 0.237479, Final residual = 0.00120815, No Iterations 4
time step continuity errors : sum local = 0.00012791, global = -6.43222e-09, cumulative = -0.00067882
DILUPBiCGStab:  Solving for omega, Initial residual = 0.00704436, Final residual = 2.63226e-07, No Iterations 2
DILUPBiCGStab:  Solving for k, Initial residual = 0.0300725, Final residual = 1.3744e-06, No Iterations 2
ExecutionTime = 6.92 s  ClockTime = 7 s

Time = 64

DILUPBiCGStab:  Solving for Ux, Initial residual = 0.0184997, Final residual = 3.88301e-05, No Iterations 1
DILUPBiCGStab:  Solving for Uy, Initial residual = 0.0708514, Final residual = 0.000125027, No Iterations 1
DILUPBiCGStab:  Solving for Uz, Initial residual = 0.0583549, Final residual = 0.000119282, No Iterations 1
GAMG:  Solving for p, Initial residual = 0.241463, Final residual = 0.00162717, No Iterations 4
time step continuity errors : sum local = 0.000164871, global = -4.28211e-07, cumulative = -0.000679248
DILUPBiCGStab:  Solving for omega, Initial residual = 0.00710174, Final residual = 2.69127e-07, No Iterations 2
DILUPBiCGStab:  Solving for k, Initial residual = 0.0301222, Final residual = 1.3267e-06, No Iterations 2
ExecutionTime = 7.03 s  ClockTime = 7 s

Time = 65

DILUPBiCGStab:  Solving for Ux, Initial residual = 0.0181907, Final residual = 3.6775e-05, No Iterations 1
DILUPBiCGStab:  Solving for Uy, Initial residual = 0.0720575, Final residual = 0.000122381, No Iterations 1
DILUPBiCGStab:  Solving for Uz, Initial residual = 0.0570299, Final residual = 0.000114095, No Iterations 1
GAMG:  Solving for p, Initial residual = 0.24555, Final residual = 0.00193551, No Iterations 4
time step continuity errors : sum local = 0.000187385, global = -6.69175e-07, cumulative = -0.000679917
DILUPBiCGStab:  Solving for omega, Initial residual = 0.00721617, Final residual = 2.78513e-07, No Iterations 2
DILUPBiCGStab:  Solving for k, Initial residual = 0.0301019, Final residual = 1.30861e-06, No Iterations 2
ExecutionTime = 7.15 s  ClockTime = 7 s

Time = 66

DILUPBiCGStab:  Solving for Ux, Initial residual = 0.0179156, Final residual = 3.58103e-05, No Iterations 1
DILUPBiCGStab:  Solving for Uy, Initial residual = 0.0727241, Final residual = 0.000122152, No Iterations 1
DILUPBiCGStab:  Solving for Uz, Initial residual = 0.0560845, Final residual = 0.00011063, No Iterations 1
GAMG:  Solving for p, Initial residual = 0.246552, Final residual = 0.00190867, No Iterations 4
time step continuity errors : sum local = 0.000175729, global = 9.5724e-07, cumulative = -0.00067896
DILUPBiCGStab:  Solving for omega, Initial residual = 0.00729456, Final residual = 2.82746e-07, No Iterations 2
DILUPBiCGStab:  Solving for k, Initial residual = 0.0300039, Final residual = 1.29809e-06, No Iterations 2
ExecutionTime = 7.24 s  ClockTime = 7 s

Time = 67

DILUPBiCGStab:  Solving for Ux, Initial residual = 0.0176684, Final residual = 3.50584e-05, No Iterations 1
DILUPBiCGStab:  Solving for Uy, Initial residual = 0.0742822, Final residual = 0.00012181, No Iterations 1
DILUPBiCGStab:  Solving for Uz, Initial residual = 0.0556499, Final residual = 0.000107551, No Iterations 1
GAMG:  Solving for p, Initial residual = 0.24811, Final residual = 0.0017136, No Iterations 4
time step continuity errors : sum local = 0.000150498, global = 6.40533e-07, cumulative = -0.000678319
DILUPBiCGStab:  Solving for omega, Initial residual = 0.00733693, Final residual = 2.83599e-07, No Iterations 2
DILUPBiCGStab:  Solving for k, Initial residual = 0.0298694, Final residual = 1.2993e-06, No Iterations 2
ExecutionTime = 7.35 s  ClockTime = 7 s

Time = 68

DILUPBiCGStab:  Solving for Ux, Initial residual = 0.0174946, Final residual = 3.45255e-05, No Iterations 1
DILUPBiCGStab:  Solving for Uy, Initial residual = 0.0749446, Final residual = 0.000118559, No Iterations 1
DILUPBiCGStab:  Solving for Uz, Initial residual = 0.0551223, Final residual = 0.000105541, No Iterations 1
GAMG:  Solving for p, Initial residual = 0.248129, Final residual = 0.00149427, No Iterations 4
time step continuity errors : sum local = 0.000125661, global = -2.4077e-07, cumulative = -0.00067856
DILUPBiCGStab:  Solving for omega, Initial residual = 0.00728572, Final residual = 2.77422e-07, No Iterations 2
DILUPBiCGStab:  Solving for k, Initial residual = 0.0296942, Final residual = 1.30684e-06, No Iterations 2
ExecutionTime = 7.45 s  ClockTime = 8 s

Time = 69

DILUPBiCGStab:  Solving for Ux, Initial residual = 0.0171558, Final residual = 3.40953e-05, No Iterations 1
DILUPBiCGStab:  Solving for Uy, Initial residual = 0.0746784, Final residual = 0.000113218, No Iterations 1
DILUPBiCGStab:  Solving for Uz, Initial residual = 0.0540058, Final residual = 9.96521e-05, No Iterations 1
GAMG:  Solving for p, Initial residual = 0.244944, Final residual = 0.00134388, No Iterations 4
time step continuity errors : sum local = 0.000109255, global = -2.01191e-07, cumulative = -0.000678761
DILUPBiCGStab:  Solving for omega, Initial residual = 0.00724424, Final residual = 2.75749e-07, No Iterations 2
DILUPBiCGStab:  Solving for k, Initial residual = 0.0294831, Final residual = 1.30947e-06, No Iterations 2
ExecutionTime = 7.56 s  ClockTime = 8 s

Time = 70

DILUPBiCGStab:  Solving for Ux, Initial residual = 0.0170227, Final residual = 3.36468e-05, No Iterations 1
DILUPBiCGStab:  Solving for Uy, Initial residual = 0.075002, Final residual = 0.000109447, No Iterations 1
DILUPBiCGStab:  Solving for Uz, Initial residual = 0.0533478, Final residual = 9.43209e-05, No Iterations 1
GAMG:  Solving for p, Initial residual = 0.24004, Final residual = 0.00132483, No Iterations 4
time step continuity errors : sum local = 0.000104581, global = -1.53321e-07, cumulative = -0.000678914
DILUPBiCGStab:  Solving for omega, Initial residual = 0.00716063, Final residual = 2.70618e-07, No Iterations 2
DILUPBiCGStab:  Solving for k, Initial residual = 0.0292407, Final residual = 1.32134e-06, No Iterations 2
ExecutionTime = 7.66 s  ClockTime = 8 s

Time = 71

DILUPBiCGStab:  Solving for Ux, Initial residual = 0.016823, Final residual = 3.35513e-05, No Iterations 1
DILUPBiCGStab:  Solving for Uy, Initial residual = 0.0751092, Final residual = 0.000107467, No Iterations 1
DILUPBiCGStab:  Solving for Uz, Initial residual = 0.0533274, Final residual = 9.08441e-05, No Iterations 1
GAMG:  Solving for p, Initial residual = 0.237717, Final residual = 0.00136771, No Iterations 4
time step continuity errors : sum local = 0.000105006, global = -1.73284e-07, cumulative = -0.000679088
DILUPBiCGStab:  Solving for omega, Initial residual = 0.00709012, Final residual = 2.62644e-07, No Iterations 2
DILUPBiCGStab:  Solving for k, Initial residual = 0.0289819, Final residual = 1.34455e-06, No Iterations 2
ExecutionTime = 7.75 s  ClockTime = 8 s

Time = 72

DILUPBiCGStab:  Solving for Ux, Initial residual = 0.016697, Final residual = 3.29507e-05, No Iterations 1
DILUPBiCGStab:  Solving for Uy, Initial residual = 0.0757067, Final residual = 0.000107938, No Iterations 1
DILUPBiCGStab:  Solving for Uz, Initial residual = 0.0532148, Final residual = 9.10967e-05, No Iterations 1
GAMG:  Solving for p, Initial residual = 0.23369, Final residual = 0.00141832, No Iterations 4
time step continuity errors : sum local = 0.000106135, global = -2.85643e-07, cumulative = -0.000679373
DILUPBiCGStab:  Solving for omega, Initial residual = 0.00705932, Final residual = 2.57805e-07, No Iterations 2
DILUPBiCGStab:  Solving for k, Initial residual = 0.0287341, Final residual = 1.37133e-06, No Iterations 2
ExecutionTime = 7.86 s  ClockTime = 8 s

Time = 73

DILUPBiCGStab:  Solving for Ux, Initial residual = 0.0165042, Final residual = 3.20822e-05, No Iterations 1
DILUPBiCGStab:  Solving for Uy, Initial residual = 0.0769346, Final residual = 0.000112797, No Iterations 1
DILUPBiCGStab:  Solving for Uz, Initial residual = 0.0530625, Final residual = 9.39699e-05, No Iterations 1
GAMG:  Solving for p, Initial residual = 0.231531, Final residual = 0.00146107, No Iterations 4
time step continuity errors : sum local = 0.000106677, global = -4.3871e-07, cumulative = -0.000679812
DILUPBiCGStab:  Solving for omega, Initial residual = 0.00699562, Final residual = 2.58545e-07, No Iterations 2
DILUPBiCGStab:  Solving for k, Initial residual = 0.0286033, Final residual = 1.40754e-06, No Iterations 2
ExecutionTime = 7.97 s  ClockTime = 8 s

Time = 74

DILUPBiCGStab:  Solving for Ux, Initial residual = 0.0163348, Final residual = 3.13425e-05, No Iterations 1
DILUPBiCGStab:  Solving for Uy, Initial residual = 0.0779084, Final residual = 0.000116568, No Iterations 1
DILUPBiCGStab:  Solving for Uz, Initial residual = 0.0531457, Final residual = 9.38527e-05, No Iterations 1
GAMG:  Solving for p, Initial residual = 0.234342, Final residual = 0.00154041, No Iterations 4
time step continuity errors : sum local = 0.000109442, global = 3.9433e-07, cumulative = -0.000679418
DILUPBiCGStab:  Solving for omega, Initial residual = 0.00692652, Final residual = 2.71101e-07, No Iterations 2
DILUPBiCGStab:  Solving for k, Initial residual = 0.0285134, Final residual = 1.46385e-06, No Iterations 2
ExecutionTime = 8.08 s  ClockTime = 8 s

Time = 75

DILUPBiCGStab:  Solving for Ux, Initial residual = 0.016155, Final residual = 3.07385e-05, No Iterations 1
DILUPBiCGStab:  Solving for Uy, Initial residual = 0.0792598, Final residual = 0.000119249, No Iterations 1
DILUPBiCGStab:  Solving for Uz, Initial residual = 0.0532529, Final residual = 9.31025e-05, No Iterations 1
GAMG:  Solving for p, Initial residual = 0.235085, Final residual = 0.00158612, No Iterations 4
time step continuity errors : sum local = 0.000109327, global = 3.41711e-07, cumulative = -0.000679076
DILUPBiCGStab:  Solving for omega, Initial residual = 0.0068811, Final residual = 2.83905e-07, No Iterations 2
DILUPBiCGStab:  Solving for k, Initial residual = 0.0283343, Final residual = 1.5298e-06, No Iterations 2
ExecutionTime = 8.18 s  ClockTime = 8 s

Time = 76

DILUPBiCGStab:  Solving for Ux, Initial residual = 0.0160175, Final residual = 3.02197e-05, No Iterations 1
DILUPBiCGStab:  Solving for Uy, Initial residual = 0.0799931, Final residual = 0.000120492, No Iterations 1
DILUPBiCGStab:  Solving for Uz, Initial residual = 0.0532392, Final residual = 9.29556e-05, No Iterations 1
GAMG:  Solving for p, Initial residual = 0.235269, Final residual = 0.00158864, No Iterations 4
time step continuity errors : sum local = 0.000106619, global = 2.53418e-07, cumulative = -0.000678823
DILUPBiCGStab:  Solving for omega, Initial residual = 0.00682984, Final residual = 2.9424e-07, No Iterations 2
DILUPBiCGStab:  Solving for k, Initial residual = 0.028278, Final residual = 1.61004e-06, No Iterations 2
ExecutionTime = 8.29 s  ClockTime = 8 s

Time = 77

DILUPBiCGStab:  Solving for Ux, Initial residual = 0.0158905, Final residual = 2.98406e-05, No Iterations 1
DILUPBiCGStab:  Solving for Uy, Initial residual = 0.0798363, Final residual = 0.000119686, No Iterations 1
DILUPBiCGStab:  Solving for Uz, Initial residual = 0.0536571, Final residual = 9.27487e-05, No Iterations 1
GAMG:  Solving for p, Initial residual = 0.235374, Final residual = 0.00155355, No Iterations 4
time step continuity errors : sum local = 0.000101297, global = -3.29061e-07, cumulative = -0.000679152
DILUPBiCGStab:  Solving for omega, Initial residual = 0.0067776, Final residual = 3.04035e-07, No Iterations 2
DILUPBiCGStab:  Solving for k, Initial residual = 0.0281989, Final residual = 1.70095e-06, No Iterations 2
ExecutionTime = 8.38 s  ClockTime = 8 s

Time = 78

DILUPBiCGStab:  Solving for Ux, Initial residual = 0.0156661, Final residual = 2.93432e-05, No Iterations 1
DILUPBiCGStab:  Solving for Uy, Initial residual = 0.0793306, Final residual = 0.000118558, No Iterations 1
DILUPBiCGStab:  Solving for Uz, Initial residual = 0.0535889, Final residual = 9.18174e-05, No Iterations 1
GAMG:  Solving for p, Initial residual = 0.235302, Final residual = 0.00147147, No Iterations 4
time step continuity errors : sum local = 9.34634e-05, global = -3.37947e-07, cumulative = -0.00067949
DILUPBiCGStab:  Solving for omega, Initial residual = 0.00673718, Final residual = 3.14124e-07, No Iterations 2
DILUPBiCGStab:  Solving for k, Initial residual = 0.0280722, Final residual = 1.79543e-06, No Iterations 2
ExecutionTime = 8.48 s  ClockTime = 9 s

Time = 79

DILUPBiCGStab:  Solving for Ux, Initial residual = 0.0155897, Final residual = 2.89781e-05, No Iterations 1
DILUPBiCGStab:  Solving for Uy, Initial residual = 0.0785022, Final residual = 0.000116923, No Iterations 1
DILUPBiCGStab:  Solving for Uz, Initial residual = 0.0536177, Final residual = 9.17079e-05, No Iterations 1
GAMG:  Solving for p, Initial residual = 0.236224, Final residual = 0.00137526, No Iterations 4
time step continuity errors : sum local = 8.53182e-05, global = -3.22358e-07, cumulative = -0.000679812
DILUPBiCGStab:  Solving for omega, Initial residual = 0.0066706, Final residual = 3.30851e-07, No Iterations 2
DILUPBiCGStab:  Solving for k, Initial residual = 0.0279697, Final residual = 1.8502e-06, No Iterations 2
ExecutionTime = 8.59 s  ClockTime = 9 s

Time = 80

DILUPBiCGStab:  Solving for Ux, Initial residual = 0.0155019, Final residual = 2.87679e-05, No Iterations 1
DILUPBiCGStab:  Solving for Uy, Initial residual = 0.0785695, Final residual = 0.000115833, No Iterations 1
DILUPBiCGStab:  Solving for Uz, Initial residual = 0.0535887, Final residual = 9.12603e-05, No Iterations 1
GAMG:  Solving for p, Initial residual = 0.233956, Final residual = 0.00133973, No Iterations 4
time step continuity errors : sum local = 8.14087e-05, global = 3.8983e-07, cumulative = -0.000679422
DILUPBiCGStab:  Solving for omega, Initial residual = 0.00660981, Final residual = 3.34678e-07, No Iterations 2
DILUPBiCGStab:  Solving for k, Initial residual = 0.0278851, Final residual = 1.94291e-06, No Iterations 2
ExecutionTime = 8.68 s  ClockTime = 9 s

Time = 81

DILUPBiCGStab:  Solving for Ux, Initial residual = 0.0154694, Final residual = 2.89495e-05, No Iterations 1
DILUPBiCGStab:  Solving for Uy, Initial residual = 0.0791168, Final residual = 0.00011525, No Iterations 1
DILUPBiCGStab:  Solving for Uz, Initial residual = 0.0537283, Final residual = 9.02425e-05, No Iterations 1
GAMG:  Solving for p, Initial residual = 0.234306, Final residual = 0.00135158, No Iterations 4
time step continuity errors : sum local = 8.03431e-05, global = 2.82507e-07, cumulative = -0.00067914
DILUPBiCGStab:  Solving for omega, Initial residual = 0.00653779, Final residual = 3.34927e-07, No Iterations 2
DILUPBiCGStab:  Solving for k, Initial residual = 0.027783, Final residual = 2.30368e-06, No Iterations 2
ExecutionTime = 8.8 s  ClockTime = 9 s

Time = 82

DILUPBiCGStab:  Solving for Ux, Initial residual = 0.0154345, Final residual = 2.91029e-05, No Iterations 1
DILUPBiCGStab:  Solving for Uy, Initial residual = 0.0787529, Final residual = 0.000114289, No Iterations 1
DILUPBiCGStab:  Solving for Uz, Initial residual = 0.0540285, Final residual = 8.92624e-05, No Iterations 1
GAMG:  Solving for p, Initial residual = 0.235175, Final residual = 0.0013856, No Iterations 4
time step continuity errors : sum local = 8.07805e-05, global = -2.45975e-07, cumulative = -0.000679386
DILUPBiCGStab:  Solving for omega, Initial residual = 0.00646841, Final residual = 3.45081e-07, No Iterations 2
DILUPBiCGStab:  Solving for k, Initial residual = 0.0276359, Final residual = 4.49231e-06, No Iterations 2
ExecutionTime = 8.9 s  ClockTime = 9 s

Time = 83

DILUPBiCGStab:  Solving for Ux, Initial residual = 0.0153411, Final residual = 2.9232e-05, No Iterations 1
DILUPBiCGStab:  Solving for Uy, Initial residual = 0.0787052, Final residual = 0.00011256, No Iterations 1
DILUPBiCGStab:  Solving for Uz, Initial residual = 0.0542465, Final residual = 8.82997e-05, No Iterations 1
GAMG:  Solving for p, Initial residual = 0.234861, Final residual = 0.00143736, No Iterations 4
time step continuity errors : sum local = 8.21946e-05, global = -2.54441e-07, cumulative = -0.00067964
DILUPBiCGStab:  Solving for omega, Initial residual = 0.00640331, Final residual = 3.4967e-07, No Iterations 2
DILUPBiCGStab:  Solving for k, Initial residual = 0.0275402, Final residual = 1.9628e-06, No Iterations 3
ExecutionTime = 9.01 s  ClockTime = 9 s

Time = 84

DILUPBiCGStab:  Solving for Ux, Initial residual = 0.0153075, Final residual = 2.94413e-05, No Iterations 1
DILUPBiCGStab:  Solving for Uy, Initial residual = 0.0781347, Final residual = 0.000111621, No Iterations 1
DILUPBiCGStab:  Solving for Uz, Initial residual = 0.0549005, Final residual = 8.82409e-05, No Iterations 1
GAMG:  Solving for p, Initial residual = 0.237145, Final residual = 0.00146827, No Iterations 4
time step continuity errors : sum local = 8.22333e-05, global = -2.66227e-07, cumulative = -0.000679906
DILUPBiCGStab:  Solving for omega, Initial residual = 0.00638012, Final residual = 3.58479e-07, No Iterations 2
DILUPBiCGStab:  Solving for k, Initial residual = 0.0274415, Final residual = 2.13471e-06, No Iterations 3
ExecutionTime = 9.12 s  ClockTime = 9 s

Time = 85

DILUPBiCGStab:  Solving for Ux, Initial residual = 0.0152633, Final residual = 2.94263e-05, No Iterations 1
DILUPBiCGStab:  Solving for Uy, Initial residual = 0.0778489, Final residual = 0.000110749, No Iterations 1
DILUPBiCGStab:  Solving for Uz, Initial residual = 0.0556521, Final residual = 8.82454e-05, No Iterations 1
GAMG:  Solving for p, Initial residual = 0.240084, Final residual = 0.00147798, No Iterations 4
time step continuity errors : sum local = 8.12699e-05, global = -3.11599e-07, cumulative = -0.000680218
DILUPBiCGStab:  Solving for omega, Initial residual = 0.00634456, Final residual = 3.66317e-07, No Iterations 2
DILUPBiCGStab:  Solving for k, Initial residual = 0.0272903, Final residual = 1.63472e-06, No Iterations 3
ExecutionTime = 9.23 s  ClockTime = 9 s

Time = 86

DILUPBiCGStab:  Solving for Ux, Initial residual = 0.0152098, Final residual = 2.97619e-05, No Iterations 1
DILUPBiCGStab:  Solving for Uy, Initial residual = 0.0774331, Final residual = 0.00011052, No Iterations 1
DILUPBiCGStab:  Solving for Uz, Initial residual = 0.0559394, Final residual = 8.79872e-05, No Iterations 1
GAMG:  Solving for p, Initial residual = 0.244181, Final residual = 0.00148571, No Iterations 4
time step continuity errors : sum local = 8.02083e-05, global = -3.41042e-07, cumulative = -0.000680559
DILUPBiCGStab:  Solving for omega, Initial residual = 0.00633841, Final residual = 3.8158e-07, No Iterations 2
DILUPBiCGStab:  Solving for k, Initial residual = 0.0271988, Final residual = 2.31175e-06, No Iterations 3
ExecutionTime = 9.33 s  ClockTime = 9 s

Time = 87

DILUPBiCGStab:  Solving for Ux, Initial residual = 0.0152062, Final residual = 2.96993e-05, No Iterations 1
DILUPBiCGStab:  Solving for Uy, Initial residual = 0.076916, Final residual = 0.000109373, No Iterations 1
DILUPBiCGStab:  Solving for Uz, Initial residual = 0.0565608, Final residual = 8.70314e-05, No Iterations 1
GAMG:  Solving for p, Initial residual = 0.244691, Final residual = 0.00149612, No Iterations 4
time step continuity errors : sum local = 7.93114e-05, global = 2.45742e-07, cumulative = -0.000680313
DILUPBiCGStab:  Solving for omega, Initial residual = 0.0063061, Final residual = 3.96964e-07, No Iterations 2
DILUPBiCGStab:  Solving for k, Initial residual = 0.0270547, Final residual = 1.95784e-06, No Iterations 3
ExecutionTime = 9.45 s  ClockTime = 10 s

Time = 88

DILUPBiCGStab:  Solving for Ux, Initial residual = 0.0151043, Final residual = 2.96859e-05, No Iterations 1
DILUPBiCGStab:  Solving for Uy, Initial residual = 0.0758874, Final residual = 0.000108748, No Iterations 1
DILUPBiCGStab:  Solving for Uz, Initial residual = 0.0570692, Final residual = 8.65182e-05, No Iterations 1
GAMG:  Solving for p, Initial residual = 0.24669, Final residual = 0.00148561, No Iterations 4
time step continuity errors : sum local = 7.72738e-05, global = -2.63146e-07, cumulative = -0.000680576
DILUPBiCGStab:  Solving for omega, Initial residual = 0.0062714, Final residual = 4.02938e-07, No Iterations 2
DILUPBiCGStab:  Solving for k, Initial residual = 0.0268431, Final residual = 1.52677e-06, No Iterations 3
ExecutionTime = 9.55 s  ClockTime = 10 s

Time = 89

DILUPBiCGStab:  Solving for Ux, Initial residual = 0.0150687, Final residual = 2.97653e-05, No Iterations 1
DILUPBiCGStab:  Solving for Uy, Initial residual = 0.0752916, Final residual = 0.000108745, No Iterations 1
DILUPBiCGStab:  Solving for Uz, Initial residual = 0.0574068, Final residual = 8.60624e-05, No Iterations 1
GAMG:  Solving for p, Initial residual = 0.24731, Final residual = 0.00146219, No Iterations 4
time step continuity errors : sum local = 7.49734e-05, global = -1.30629e-07, cumulative = -0.000680707
DILUPBiCGStab:  Solving for omega, Initial residual = 0.00624992, Final residual = 4.29041e-07, No Iterations 2
DILUPBiCGStab:  Solving for k, Initial residual = 0.0266295, Final residual = 1.71548e-06, No Iterations 3
ExecutionTime = 9.65 s  ClockTime = 10 s

Time = 90

DILUPBiCGStab:  Solving for Ux, Initial residual = 0.0150282, Final residual = 2.97148e-05, No Iterations 1
DILUPBiCGStab:  Solving for Uy, Initial residual = 0.0744201, Final residual = 0.000107838, No Iterations 1
DILUPBiCGStab:  Solving for Uz, Initial residual = 0.0577234, Final residual = 8.5189e-05, No Iterations 1
GAMG:  Solving for p, Initial residual = 0.250262, Final residual = 0.00144726, No Iterations 4
time step continuity errors : sum local = 7.31515e-05, global = -5.38094e-08, cumulative = -0.000680761
DILUPBiCGStab:  Solving for omega, Initial residual = 0.0062151, Final residual = 4.42447e-07, No Iterations 2
DILUPBiCGStab:  Solving for k, Initial residual = 0.0264091, Final residual = 1.33773e-06, No Iterations 3
ExecutionTime = 9.75 s  ClockTime = 10 s

Time = 91

DILUPBiCGStab:  Solving for Ux, Initial residual = 0.0149829, Final residual = 2.97177e-05, No Iterations 1
DILUPBiCGStab:  Solving for Uy, Initial residual = 0.07337, Final residual = 0.000107208, No Iterations 1
DILUPBiCGStab:  Solving for Uz, Initial residual = 0.0577187, Final residual = 8.4111e-05, No Iterations 1
GAMG:  Solving for p, Initial residual = 0.251647, Final residual = 0.00141908, No Iterations 4
time step continuity errors : sum local = 7.07522e-05, global = -3.58688e-08, cumulative = -0.000680797
DILUPBiCGStab:  Solving for omega, Initial residual = 0.00618325, Final residual = 4.55885e-07, No Iterations 2
DILUPBiCGStab:  Solving for k, Initial residual = 0.0261846, Final residual = 1.13276e-06, No Iterations 3
ExecutionTime = 9.87 s  ClockTime = 10 s

Time = 92

DILUPBiCGStab:  Solving for Ux, Initial residual = 0.0149919, Final residual = 2.97258e-05, No Iterations 1
DILUPBiCGStab:  Solving for Uy, Initial residual = 0.0727963, Final residual = 0.000107089, No Iterations 1
DILUPBiCGStab:  Solving for Uz, Initial residual = 0.0576804, Final residual = 8.33977e-05, No Iterations 1
GAMG:  Solving for p, Initial residual = 0.251708, Final residual = 0.00142221, No Iterations 4
time step continuity errors : sum local = 6.99136e-05, global = -5.9617e-08, cumulative = -0.000680856
DILUPBiCGStab:  Solving for omega, Initial residual = 0.00615946, Final residual = 4.79871e-07, No Iterations 2
DILUPBiCGStab:  Solving for k, Initial residual = 0.0259991, Final residual = 1.20167e-06, No Iterations 3
ExecutionTime = 9.98 s  ClockTime = 10 s

Time = 93

DILUPBiCGStab:  Solving for Ux, Initial residual = 0.0149142, Final residual = 2.9894e-05, No Iterations 1
DILUPBiCGStab:  Solving for Uy, Initial residual = 0.0722733, Final residual = 0.000108524, No Iterations 1
DILUPBiCGStab:  Solving for Uz, Initial residual = 0.0576855, Final residual = 8.26087e-05, No Iterations 1
GAMG:  Solving for p, Initial residual = 0.25406, Final residual = 0.00143053, No Iterations 4
time step continuity errors : sum local = 6.935e-05, global = -7.30779e-08, cumulative = -0.000680929
DILUPBiCGStab:  Solving for omega, Initial residual = 0.00612057, Final residual = 4.83543e-07, No Iterations 2
DILUPBiCGStab:  Solving for k, Initial residual = 0.0257391, Final residual = 1.00004e-06, No Iterations 3
ExecutionTime = 10.09 s  ClockTime = 10 s

Time = 94

DILUPBiCGStab:  Solving for Ux, Initial residual = 0.0148492, Final residual = 2.99779e-05, No Iterations 1
DILUPBiCGStab:  Solving for Uy, Initial residual = 0.0720552, Final residual = 0.000109949, No Iterations 1
DILUPBiCGStab:  Solving for Uz, Initial residual = 0.0575439, Final residual = 8.17984e-05, No Iterations 1
GAMG:  Solving for p, Initial residual = 0.252904, Final residual = 0.00143465, No Iterations 4
time step continuity errors : sum local = 6.86742e-05, global = -9.23002e-08, cumulative = -0.000681022
DILUPBiCGStab:  Solving for omega, Initial residual = 0.00612953, Final residual = 5.06721e-07, No Iterations 2
DILUPBiCGStab:  Solving for k, Initial residual = 0.0255664, Final residual = 9.0476e-06, No Iterations 2
ExecutionTime = 10.19 s  ClockTime = 10 s

Time = 95

DILUPBiCGStab:  Solving for Ux, Initial residual = 0.0147863, Final residual = 3.00968e-05, No Iterations 1
DILUPBiCGStab:  Solving for Uy, Initial residual = 0.0716373, Final residual = 0.000111936, No Iterations 1
DILUPBiCGStab:  Solving for Uz, Initial residual = 0.0574539, Final residual = 8.16104e-05, No Iterations 1
GAMG:  Solving for p, Initial residual = 0.252341, Final residual = 0.00145483, No Iterations 4
time step continuity errors : sum local = 6.87574e-05, global = -9.77589e-08, cumulative = -0.000681119
DILUPBiCGStab:  Solving for omega, Initial residual = 0.00608803, Final residual = 5.16683e-07, No Iterations 2
DILUPBiCGStab:  Solving for k, Initial residual = 0.0253601, Final residual = 7.39584e-06, No Iterations 2
ExecutionTime = 10.29 s  ClockTime = 10 s

Time = 96

DILUPBiCGStab:  Solving for Ux, Initial residual = 0.0147526, Final residual = 3.01862e-05, No Iterations 1
DILUPBiCGStab:  Solving for Uy, Initial residual = 0.0711137, Final residual = 0.000113807, No Iterations 1
DILUPBiCGStab:  Solving for Uz, Initial residual = 0.0574621, Final residual = 8.07707e-05, No Iterations 1
GAMG:  Solving for p, Initial residual = 0.251354, Final residual = 0.00143401, No Iterations 4
time step continuity errors : sum local = 6.69963e-05, global = -8.4672e-08, cumulative = -0.000681204
DILUPBiCGStab:  Solving for omega, Initial residual = 0.00603467, Final residual = 5.28502e-07, No Iterations 2
DILUPBiCGStab:  Solving for k, Initial residual = 0.0251559, Final residual = 6.96602e-06, No Iterations 2
ExecutionTime = 10.4 s  ClockTime = 10 s

Time = 97

DILUPBiCGStab:  Solving for Ux, Initial residual = 0.0147219, Final residual = 3.02771e-05, No Iterations 1
DILUPBiCGStab:  Solving for Uy, Initial residual = 0.0709932, Final residual = 0.000115549, No Iterations 1
DILUPBiCGStab:  Solving for Uz, Initial residual = 0.057269, Final residual = 8.02674e-05, No Iterations 1
GAMG:  Solving for p, Initial residual = 0.251891, Final residual = 0.00142496, No Iterations 4
time step continuity errors : sum local = 6.57819e-05, global = -5.53121e-08, cumulative = -0.000681259
DILUPBiCGStab:  Solving for omega, Initial residual = 0.00602318, Final residual = 5.48097e-07, No Iterations 2
DILUPBiCGStab:  Solving for k, Initial residual = 0.0250297, Final residual = 6.05019e-06, No Iterations 2
ExecutionTime = 10.51 s  ClockTime = 11 s

Time = 98

DILUPBiCGStab:  Solving for Ux, Initial residual = 0.0146732, Final residual = 3.04554e-05, No Iterations 1
DILUPBiCGStab:  Solving for Uy, Initial residual = 0.0703272, Final residual = 0.000118478, No Iterations 1
DILUPBiCGStab:  Solving for Uz, Initial residual = 0.0571979, Final residual = 8.03167e-05, No Iterations 1
GAMG:  Solving for p, Initial residual = 0.25242, Final residual = 0.00137796, No Iterations 4
time step continuity errors : sum local = 6.29209e-05, global = -1.69345e-08, cumulative = -0.000681276
DILUPBiCGStab:  Solving for omega, Initial residual = 0.00595304, Final residual = 5.48661e-07, No Iterations 2
DILUPBiCGStab:  Solving for k, Initial residual = 0.0248142, Final residual = 5.69588e-06, No Iterations 2
ExecutionTime = 10.6 s  ClockTime = 11 s

Time = 99

[...]
ExecutionTime = 49.74 s  ClockTime = 50 s

Time = 476

DILUPBiCGStab:  Solving for Ux, Initial residual = 0.0118203, Final residual = 5.76403e-05, No Iterations 1
DILUPBiCGStab:  Solving for Uy, Initial residual = 0.0607804, Final residual = 0.000241264, No Iterations 1
DILUPBiCGStab:  Solving for Uz, Initial residual = 0.0542127, Final residual = 0.000175203, No Iterations 1
GAMG:  Solving for p, Initial residual = 0.268152, Final residual = 0.00106158, No Iterations 4
time step continuity errors : sum local = 7.64412e-05, global = 1.45345e-07, cumulative = -0.000676446
DILUPBiCGStab:  Solving for omega, Initial residual = 0.00965323, Final residual = 1.46275e-07, No Iterations 3
DILUPBiCGStab:  Solving for k, Initial residual = 0.0377076, Final residual = 4.32117e-06, No Iterations 2
ExecutionTime = 49.84 s  ClockTime = 50 s

Time = 477

DILUPBiCGStab:  Solving for Ux, Initial residual = 0.0118336, Final residual = 5.83415e-05, No Iterations 1
DILUPBiCGStab:  Solving for Uy, Initial residual = 0.0609662, Final residual = 0.000245174, No Iterations 1
DILUPBiCGStab:  Solving for Uz, Initial residual = 0.0539059, Final residual = 0.000183208, No Iterations 1
GAMG:  Solving for p, Initial residual = 0.263442, Final residual = 0.00109988, No Iterations 4
time step continuity errors : sum local = 7.9821e-05, global = 1.30689e-07, cumulative = -0.000676316
DILUPBiCGStab:  Solving for omega, Initial residual = 0.00934883, Final residual = 1.34849e-07, No Iterations 3
DILUPBiCGStab:  Solving for k, Initial residual = 0.0362143, Final residual = 1.27564e-06, No Iterations 3
ExecutionTime = 49.95 s  ClockTime = 50 s

Time = 478

DILUPBiCGStab:  Solving for Ux, Initial residual = 0.0118678, Final residual = 5.90366e-05, No Iterations 1
DILUPBiCGStab:  Solving for Uy, Initial residual = 0.061039, Final residual = 0.000246776, No Iterations 1
DILUPBiCGStab:  Solving for Uz, Initial residual = 0.0541789, Final residual = 0.000196222, No Iterations 1
GAMG:  Solving for p, Initial residual = 0.260983, Final residual = 0.00116988, No Iterations 4
time step continuity errors : sum local = 8.5247e-05, global = 8.17704e-08, cumulative = -0.000676234
DILUPBiCGStab:  Solving for omega, Initial residual = 0.00902392, Final residual = 4.04654e-07, No Iterations 3
DILUPBiCGStab:  Solving for k, Initial residual = 0.0355517, Final residual = 5.76945e-06, No Iterations 2
ExecutionTime = 50.06 s  ClockTime = 50 s

Time = 479

DILUPBiCGStab:  Solving for Ux, Initial residual = 0.0118913, Final residual = 5.88526e-05, No Iterations 1
DILUPBiCGStab:  Solving for Uy, Initial residual = 0.0607243, Final residual = 0.000245546, No Iterations 1
DILUPBiCGStab:  Solving for Uz, Initial residual = 0.0547662, Final residual = 0.00021131, No Iterations 1
GAMG:  Solving for p, Initial residual = 0.261622, Final residual = 0.00118776, No Iterations 4
time step continuity errors : sum local = 8.65064e-05, global = -2.26111e-08, cumulative = -0.000676257
DILUPBiCGStab:  Solving for omega, Initial residual = 0.00873802, Final residual = 1.32288e-07, No Iterations 3
DILUPBiCGStab:  Solving for k, Initial residual = 0.0342067, Final residual = 4.20358e-06, No Iterations 2
ExecutionTime = 50.15 s  ClockTime = 50 s

Time = 480

DILUPBiCGStab:  Solving for Ux, Initial residual = 0.0119269, Final residual = 5.68691e-05, No Iterations 1
DILUPBiCGStab:  Solving for Uy, Initial residual = 0.0606292, Final residual = 0.000241112, No Iterations 1
DILUPBiCGStab:  Solving for Uz, Initial residual = 0.0551687, Final residual = 0.000221616, No Iterations 1
GAMG:  Solving for p, Initial residual = 0.265312, Final residual = 0.00114405, No Iterations 4
time step continuity errors : sum local = 8.28952e-05, global = -1.90082e-07, cumulative = -0.000676447
DILUPBiCGStab:  Solving for omega, Initial residual = 0.00863322, Final residual = 1.36435e-07, No Iterations 3
DILUPBiCGStab:  Solving for k, Initial residual = 0.0331493, Final residual = 4.65174e-06, No Iterations 2
ExecutionTime = 50.25 s  ClockTime = 51 s

Time = 481

DILUPBiCGStab:  Solving for Ux, Initial residual = 0.0119949, Final residual = 5.34646e-05, No Iterations 1
DILUPBiCGStab:  Solving for Uy, Initial residual = 0.0606297, Final residual = 0.000231758, No Iterations 1
DILUPBiCGStab:  Solving for Uz, Initial residual = 0.0552858, Final residual = 0.000223142, No Iterations 1
GAMG:  Solving for p, Initial residual = 0.269191, Final residual = 0.00108948, No Iterations 4
time step continuity errors : sum local = 7.82932e-05, global = -3.78819e-07, cumulative = -0.000676826
DILUPBiCGStab:  Solving for omega, Initial residual = 0.00862719, Final residual = 4.32005e-07, No Iterations 3
DILUPBiCGStab:  Solving for k, Initial residual = 0.032899, Final residual = 6.05712e-06, No Iterations 2
ExecutionTime = 50.35 s  ClockTime = 51 s

Time = 482

DILUPBiCGStab:  Solving for Ux, Initial residual = 0.0120493, Final residual = 5.05577e-05, No Iterations 1
DILUPBiCGStab:  Solving for Uy, Initial residual = 0.0605613, Final residual = 0.000222208, No Iterations 1
DILUPBiCGStab:  Solving for Uz, Initial residual = 0.0548959, Final residual = 0.000218181, No Iterations 1
GAMG:  Solving for p, Initial residual = 0.274134, Final residual = 0.00272224, No Iterations 3
time step continuity errors : sum local = 0.000193181, global = -2.88038e-07, cumulative = -0.000677114
DILUPBiCGStab:  Solving for omega, Initial residual = 0.00856787, Final residual = 1.95171e-07, No Iterations 3
DILUPBiCGStab:  Solving for k, Initial residual = 0.0322517, Final residual = 5.14722e-06, No Iterations 2
ExecutionTime = 50.46 s  ClockTime = 51 s

Time = 483

DILUPBiCGStab:  Solving for Ux, Initial residual = 0.0121161, Final residual = 4.91703e-05, No Iterations 1
DILUPBiCGStab:  Solving for Uy, Initial residual = 0.0607805, Final residual = 0.000217014, No Iterations 1
DILUPBiCGStab:  Solving for Uz, Initial residual = 0.0547971, Final residual = 0.000209497, No Iterations 1
GAMG:  Solving for p, Initial residual = 0.278798, Final residual = 0.00127163, No Iterations 4
time step continuity errors : sum local = 8.88409e-05, global = 1.03672e-07, cumulative = -0.00067701
DILUPBiCGStab:  Solving for omega, Initial residual = 0.00847531, Final residual = 1.76077e-07, No Iterations 3
DILUPBiCGStab:  Solving for k, Initial residual = 0.0313715, Final residual = 4.93846e-06, No Iterations 2
ExecutionTime = 50.55 s  ClockTime = 51 s

Time = 484

DILUPBiCGStab:  Solving for Ux, Initial residual = 0.0121165, Final residual = 4.85188e-05, No Iterations 1
DILUPBiCGStab:  Solving for Uy, Initial residual = 0.061217, Final residual = 0.000216809, No Iterations 1
DILUPBiCGStab:  Solving for Uz, Initial residual = 0.0548503, Final residual = 0.000200317, No Iterations 1
GAMG:  Solving for p, Initial residual = 0.280234, Final residual = 0.00126713, No Iterations 4
time step continuity errors : sum local = 8.72182e-05, global = 2.9778e-08, cumulative = -0.00067698
DILUPBiCGStab:  Solving for omega, Initial residual = 0.00839923, Final residual = 1.81404e-07, No Iterations 3
DILUPBiCGStab:  Solving for k, Initial residual = 0.0305254, Final residual = 4.64055e-06, No Iterations 2
ExecutionTime = 50.66 s  ClockTime = 51 s

Time = 485

DILUPBiCGStab:  Solving for Ux, Initial residual = 0.0120976, Final residual = 4.81015e-05, No Iterations 1
DILUPBiCGStab:  Solving for Uy, Initial residual = 0.0620137, Final residual = 0.000221408, No Iterations 1
DILUPBiCGStab:  Solving for Uz, Initial residual = 0.0549904, Final residual = 0.000192409, No Iterations 1
GAMG:  Solving for p, Initial residual = 0.283231, Final residual = 0.00119529, No Iterations 4
time step continuity errors : sum local = 8.10065e-05, global = -2.6919e-07, cumulative = -0.000677249
DILUPBiCGStab:  Solving for omega, Initial residual = 0.00840278, Final residual = 1.87107e-07, No Iterations 3
DILUPBiCGStab:  Solving for k, Initial residual = 0.0295224, Final residual = 4.40983e-06, No Iterations 2
ExecutionTime = 50.75 s  ClockTime = 51 s

Time = 486

DILUPBiCGStab:  Solving for Ux, Initial residual = 0.0120605, Final residual = 4.74473e-05, No Iterations 1
DILUPBiCGStab:  Solving for Uy, Initial residual = 0.0631908, Final residual = 0.000223261, No Iterations 1
DILUPBiCGStab:  Solving for Uz, Initial residual = 0.0551424, Final residual = 0.000186006, No Iterations 1
GAMG:  Solving for p, Initial residual = 0.285358, Final residual = 0.00113701, No Iterations 4
time step continuity errors : sum local = 7.59085e-05, global = -3.42932e-08, cumulative = -0.000677284
DILUPBiCGStab:  Solving for omega, Initial residual = 0.00819001, Final residual = 1.80502e-07, No Iterations 3
DILUPBiCGStab:  Solving for k, Initial residual = 0.0284392, Final residual = 4.29936e-06, No Iterations 2
ExecutionTime = 50.86 s  ClockTime = 51 s

Time = 487

DILUPBiCGStab:  Solving for Ux, Initial residual = 0.0120469, Final residual = 4.71199e-05, No Iterations 1
DILUPBiCGStab:  Solving for Uy, Initial residual = 0.0645077, Final residual = 0.000221879, No Iterations 1
DILUPBiCGStab:  Solving for Uz, Initial residual = 0.0558688, Final residual = 0.000181752, No Iterations 1
GAMG:  Solving for p, Initial residual = 0.288071, Final residual = 0.00114533, No Iterations 4
time step continuity errors : sum local = 7.54335e-05, global = 9.22712e-08, cumulative = -0.000677191
DILUPBiCGStab:  Solving for omega, Initial residual = 0.00810697, Final residual = 1.58694e-07, No Iterations 3
DILUPBiCGStab:  Solving for k, Initial residual = 0.0280223, Final residual = 4.23613e-06, No Iterations 2
ExecutionTime = 50.96 s  ClockTime = 51 s

Time = 488

DILUPBiCGStab:  Solving for Ux, Initial residual = 0.0120404, Final residual = 4.71404e-05, No Iterations 1
DILUPBiCGStab:  Solving for Uy, Initial residual = 0.0665114, Final residual = 0.000222335, No Iterations 1
DILUPBiCGStab:  Solving for Uz, Initial residual = 0.0569996, Final residual = 0.000182131, No Iterations 1
GAMG:  Solving for p, Initial residual = 0.291909, Final residual = 0.00123363, No Iterations 4
time step continuity errors : sum local = 8.05676e-05, global = 2.26194e-07, cumulative = -0.000676965
DILUPBiCGStab:  Solving for omega, Initial residual = 0.00831484, Final residual = 1.42037e-07, No Iterations 3
DILUPBiCGStab:  Solving for k, Initial residual = 0.027848, Final residual = 4.10197e-06, No Iterations 2
ExecutionTime = 51.07 s  ClockTime = 51 s

Time = 489

DILUPBiCGStab:  Solving for Ux, Initial residual = 0.0120304, Final residual = 4.78315e-05, No Iterations 1
DILUPBiCGStab:  Solving for Uy, Initial residual = 0.0681844, Final residual = 0.000221317, No Iterations 1
DILUPBiCGStab:  Solving for Uz, Initial residual = 0.0583593, Final residual = 0.000181664, No Iterations 1
GAMG:  Solving for p, Initial residual = 0.299349, Final residual = 0.00130623, No Iterations 4
time step continuity errors : sum local = 8.56508e-05, global = 2.79765e-07, cumulative = -0.000676685
DILUPBiCGStab:  Solving for omega, Initial residual = 0.00875883, Final residual = 1.48497e-07, No Iterations 3
DILUPBiCGStab:  Solving for k, Initial residual = 0.0279154, Final residual = 3.98808e-06, No Iterations 2
ExecutionTime = 51.17 s  ClockTime = 51 s

Time = 490

DILUPBiCGStab:  Solving for Ux, Initial residual = 0.0120613, Final residual = 4.93672e-05, No Iterations 1
DILUPBiCGStab:  Solving for Uy, Initial residual = 0.0689154, Final residual = 0.000219925, No Iterations 1
DILUPBiCGStab:  Solving for Uz, Initial residual = 0.0598075, Final residual = 0.000180845, No Iterations 1
GAMG:  Solving for p, Initial residual = 0.304009, Final residual = 0.00142477, No Iterations 4
time step continuity errors : sum local = 9.39242e-05, global = 2.54845e-07, cumulative = -0.000676431
DILUPBiCGStab:  Solving for omega, Initial residual = 0.00911191, Final residual = 1.36239e-07, No Iterations 3
DILUPBiCGStab:  Solving for k, Initial residual = 0.0279254, Final residual = 4.11876e-06, No Iterations 2
ExecutionTime = 51.28 s  ClockTime = 52 s

Time = 491

DILUPBiCGStab:  Solving for Ux, Initial residual = 0.0120689, Final residual = 5.11439e-05, No Iterations 1
DILUPBiCGStab:  Solving for Uy, Initial residual = 0.0690867, Final residual = 0.000222709, No Iterations 1
DILUPBiCGStab:  Solving for Uz, Initial residual = 0.0613409, Final residual = 0.000177519, No Iterations 1
GAMG:  Solving for p, Initial residual = 0.305054, Final residual = 0.00155227, No Iterations 4
time step continuity errors : sum local = 0.000103216, global = 1.91265e-07, cumulative = -0.000676239
DILUPBiCGStab:  Solving for omega, Initial residual = 0.00930382, Final residual = 1.41854e-07, No Iterations 3
DILUPBiCGStab:  Solving for k, Initial residual = 0.0290371, Final residual = 4.91758e-06, No Iterations 2
ExecutionTime = 51.39 s  ClockTime = 52 s

Time = 492

DILUPBiCGStab:  Solving for Ux, Initial residual = 0.0120528, Final residual = 5.09821e-05, No Iterations 1
DILUPBiCGStab:  Solving for Uy, Initial residual = 0.0697013, Final residual = 0.000221704, No Iterations 1
DILUPBiCGStab:  Solving for Uz, Initial residual = 0.0618172, Final residual = 0.000173036, No Iterations 1
GAMG:  Solving for p, Initial residual = 0.301295, Final residual = 0.00148785, No Iterations 4
time step continuity errors : sum local = 0.000100337, global = 4.67265e-08, cumulative = -0.000676193
DILUPBiCGStab:  Solving for omega, Initial residual = 0.00906198, Final residual = 1.46368e-07, No Iterations 3
DILUPBiCGStab:  Solving for k, Initial residual = 0.029117, Final residual = 4.89029e-06, No Iterations 2
ExecutionTime = 51.49 s  ClockTime = 52 s

Time = 493

DILUPBiCGStab:  Solving for Ux, Initial residual = 0.0120341, Final residual = 5.14346e-05, No Iterations 1
DILUPBiCGStab:  Solving for Uy, Initial residual = 0.0691233, Final residual = 0.000209527, No Iterations 1
DILUPBiCGStab:  Solving for Uz, Initial residual = 0.0615576, Final residual = 0.000174883, No Iterations 1
GAMG:  Solving for p, Initial residual = 0.294102, Final residual = 0.00129504, No Iterations 4
time step continuity errors : sum local = 8.84251e-05, global = -1.12306e-07, cumulative = -0.000676305
DILUPBiCGStab:  Solving for omega, Initial residual = 0.00880121, Final residual = 2.02599e-07, No Iterations 3
DILUPBiCGStab:  Solving for k, Initial residual = 0.0283992, Final residual = 4.2846e-06, No Iterations 2
ExecutionTime = 51.6 s  ClockTime = 52 s

Time = 494

DILUPBiCGStab:  Solving for Ux, Initial residual = 0.0120133, Final residual = 5.12275e-05, No Iterations 1
DILUPBiCGStab:  Solving for Uy, Initial residual = 0.0684999, Final residual = 0.000204765, No Iterations 1
DILUPBiCGStab:  Solving for Uz, Initial residual = 0.0614962, Final residual = 0.000176882, No Iterations 1
GAMG:  Solving for p, Initial residual = 0.290563, Final residual = 0.00117327, No Iterations 4
time step continuity errors : sum local = 8.11627e-05, global = -1.92292e-07, cumulative = -0.000676497
DILUPBiCGStab:  Solving for omega, Initial residual = 0.00870184, Final residual = 1.30457e-07, No Iterations 3
DILUPBiCGStab:  Solving for k, Initial residual = 0.0275611, Final residual = 3.7836e-06, No Iterations 2
ExecutionTime = 51.7 s  ClockTime = 52 s

Time = 495

DILUPBiCGStab:  Solving for Ux, Initial residual = 0.0119931, Final residual = 5.07075e-05, No Iterations 1
DILUPBiCGStab:  Solving for Uy, Initial residual = 0.0688625, Final residual = 0.00020101, No Iterations 1
DILUPBiCGStab:  Solving for Uz, Initial residual = 0.0620975, Final residual = 0.000181589, No Iterations 1
GAMG:  Solving for p, Initial residual = 0.291696, Final residual = 0.00120527, No Iterations 4
time step continuity errors : sum local = 8.45896e-05, global = -2.94322e-07, cumulative = -0.000676791
DILUPBiCGStab:  Solving for omega, Initial residual = 0.0089266, Final residual = 1.35177e-07, No Iterations 3
DILUPBiCGStab:  Solving for k, Initial residual = 0.0268398, Final residual = 3.47167e-06, No Iterations 2
ExecutionTime = 51.8 s  ClockTime = 52 s

Time = 496

DILUPBiCGStab:  Solving for Ux, Initial residual = 0.012011, Final residual = 5.02968e-05, No Iterations 1
DILUPBiCGStab:  Solving for Uy, Initial residual = 0.0686219, Final residual = 0.000198445, No Iterations 1
DILUPBiCGStab:  Solving for Uz, Initial residual = 0.0627758, Final residual = 0.000187442, No Iterations 1
GAMG:  Solving for p, Initial residual = 0.295807, Final residual = 0.00133817, No Iterations 4
time step continuity errors : sum local = 9.52364e-05, global = -4.39596e-07, cumulative = -0.000677231
DILUPBiCGStab:  Solving for omega, Initial residual = 0.00911006, Final residual = 1.33832e-07, No Iterations 3
DILUPBiCGStab:  Solving for k, Initial residual = 0.0262254, Final residual = 3.52965e-06, No Iterations 2
ExecutionTime = 51.9 s  ClockTime = 52 s

Time = 497

DILUPBiCGStab:  Solving for Ux, Initial residual = 0.0120656, Final residual = 5.02209e-05, No Iterations 1
DILUPBiCGStab:  Solving for Uy, Initial residual = 0.0681978, Final residual = 0.000198088, No Iterations 1
DILUPBiCGStab:  Solving for Uz, Initial residual = 0.0624525, Final residual = 0.000195188, No Iterations 1
GAMG:  Solving for p, Initial residual = 0.294759, Final residual = 0.00140178, No Iterations 4
time step continuity errors : sum local = 0.000101129, global = -5.67737e-07, cumulative = -0.000677799
DILUPBiCGStab:  Solving for omega, Initial residual = 0.00931626, Final residual = 1.35956e-07, No Iterations 3
DILUPBiCGStab:  Solving for k, Initial residual = 0.0265348, Final residual = 3.46746e-06, No Iterations 2
ExecutionTime = 52 s  ClockTime = 52 s

Time = 498

DILUPBiCGStab:  Solving for Ux, Initial residual = 0.0121218, Final residual = 5.02074e-05, No Iterations 1
DILUPBiCGStab:  Solving for Uy, Initial residual = 0.0679891, Final residual = 0.000199228, No Iterations 1
DILUPBiCGStab:  Solving for Uz, Initial residual = 0.0622807, Final residual = 0.000204635, No Iterations 1
GAMG:  Solving for p, Initial residual = 0.290227, Final residual = 0.00136988, No Iterations 4
time step continuity errors : sum local = 0.000100378, global = -5.85118e-07, cumulative = -0.000678384
DILUPBiCGStab:  Solving for omega, Initial residual = 0.00935063, Final residual = 9.47942e-07, No Iterations 2
DILUPBiCGStab:  Solving for k, Initial residual = 0.0272395, Final residual = 3.51676e-06, No Iterations 2
ExecutionTime = 52.11 s  ClockTime = 52 s

Time = 499

DILUPBiCGStab:  Solving for Ux, Initial residual = 0.0122256, Final residual = 5.06671e-05, No Iterations 1
DILUPBiCGStab:  Solving for Uy, Initial residual = 0.0684945, Final residual = 0.000201805, No Iterations 1
DILUPBiCGStab:  Solving for Uz, Initial residual = 0.062137, Final residual = 0.000215358, No Iterations 1
GAMG:  Solving for p, Initial residual = 0.284241, Final residual = 0.00130301, No Iterations 4
time step continuity errors : sum local = 9.63595e-05, global = -5.55582e-07, cumulative = -0.000678939
DILUPBiCGStab:  Solving for omega, Initial residual = 0.00975176, Final residual = 1.407e-07, No Iterations 3
DILUPBiCGStab:  Solving for k, Initial residual = 0.0285167, Final residual = 3.86183e-06, No Iterations 2
ExecutionTime = 52.21 s  ClockTime = 52 s

Time = 500

DILUPBiCGStab:  Solving for Ux, Initial residual = 0.0123496, Final residual = 5.14397e-05, No Iterations 1
DILUPBiCGStab:  Solving for Uy, Initial residual = 0.0692391, Final residual = 0.000212464, No Iterations 1
DILUPBiCGStab:  Solving for Uz, Initial residual = 0.0622286, Final residual = 0.000227999, No Iterations 1
GAMG:  Solving for p, Initial residual = 0.28217, Final residual = 0.00126334, No Iterations 4
time step continuity errors : sum local = 9.38746e-05, global = -5.38262e-07, cumulative = -0.000679478
DILUPBiCGStab:  Solving for omega, Initial residual = 0.00979129, Final residual = 9.25634e-07, No Iterations 2
DILUPBiCGStab:  Solving for k, Initial residual = 0.0296745, Final residual = 3.88586e-06, No Iterations 2
ExecutionTime = 52.38 s  ClockTime = 53 s

End

Finalising parallel run
