/*---------------------------------------------------------------------------*\
| =========                 |                                                 |
| \\      /  F ield         | OpenFOAM: The Open Source CFD Toolbox           |
|  \\    /   O peration     | Version:  2312                                  |
|   \\  /    A nd           | Website:  www.openfoam.com                      |
|    \\/     M anipulation  |                                                 |
\*---------------------------------------------------------------------------*/
Build  : _e651d635-20240208 OPENFOAM=2312 patch=240220 version=2312
Arch   : "LSB;label=32;scalar=64"
Exec   : kinematicParcelFoam -parallel
Date   : Sep 15 2025
Time   : 12:57:59
Host   : work
PID    : 395909
I/O    : uncollated
Case   : /home/bm424/Projects/sandTrapShapeOpt/sandTrapCaseDir
nProcs : 10
Hosts  :
(
    (work 10)
)
Pstream initialized with:
    floatTransfer      : false
    nProcsSimpleSum    : 0
    nonBlockingExchange: 0 (tuning: 0)
    exchange algorithm : 0
    commsType          : nonBlocking
    polling iterations : 0
trapFpe: Floating point exception trapping enabled (FOAM_SIGFPE).
fileModificationChecking : Monitoring run-time modified files using timeStampMaster (fileModificationSkew 5, maxFileModificationPolls 20)
allowSystemOperations : Allowing user-supplied system call operations

// * * * * * * * * * * * * * * * * * * * * * * * * * * * * * * * * * * * * * //
Create time

Create mesh for time = 502


PIMPLE: max iterations = 2
    field "(p|U|k|omega)"	: relTol 0, tolerance 1e-05


Reading g
Reading field p


Reading field U

Reading/calculating face flux field phi

Selecting incompressible transport model Newtonian
Creating turbulence model

Selecting turbulence model type RAS
Selecting RAS turbulence model kOmegaSST
Selecting patchDistMethod meshWave
RAS
{
    RASModel        kOmegaSST;
    turbulence      on;
    printCoeffs     on;
    alphaK1         0.85;
    alphaK2         1;
    alphaOmega1     0.5;
    alphaOmega2     0.856;
    gamma1          0.555556;
    gamma2          0.44;
    beta1           0.075;
    beta2           0.0828;
    betaStar        0.09;
    a1              0.31;
    b1              1;
    c1              10;
    F3              false;
    decayControl    false;
    kInf            0;
    omegaInf        0;
}

No MRF models present

Constructing kinematicCloud kinematicCloud
Constructing particle forces
    Selecting particle force sphereDrag
    Selecting particle force gravity
    Selecting particle force SaffmanMeiLiftForce
Constructing cloud functions
    Selecting cloud function patchPost1 of type particlePostProcessing
Constructing particle injection models
Creating injector: p1
Selecting injection model manualInjection
    Constructing 3-D injection
Selecting distribution model fixedValue
Creating injector: p2
Selecting injection model manualInjection
    Constructing 3-D injection
Selecting distribution model fixedValue
Creating injector: p3
Selecting injection model manualInjection
    Constructing 3-D injection
Selecting distribution model fixedValue
Creating injector: p4
Selecting injection model manualInjection
    Constructing 3-D injection
Selecting distribution model fixedValue
Creating injector: p5
Selecting injection model manualInjection
    Constructing 3-D injection
Selecting distribution model fixedValue
Creating injector: p6
Selecting injection model manualInjection
    Constructing 3-D injection
Selecting distribution model fixedValue
Creating injector: p7
Selecting injection model manualInjection
    Constructing 3-D injection
Selecting distribution model fixedValue
Creating injector: p8
Selecting injection model manualInjection
    Constructing 3-D injection
Selecting distribution model fixedValue
Creating injector: p9
Selecting injection model manualInjection
    Constructing 3-D injection
Selecting distribution model fixedValue
Creating injector: p10
Selecting injection model manualInjection
    Constructing 3-D injection
Selecting distribution model fixedValue
Creating injector: p11
Selecting injection model manualInjection
    Constructing 3-D injection
Selecting distribution model fixedValue
Creating injector: p12
Selecting injection model manualInjection
    Constructing 3-D injection
Selecting distribution model fixedValue
Creating injector: p13
Selecting injection model manualInjection
    Constructing 3-D injection
Selecting distribution model fixedValue
Creating injector: p14
Selecting injection model manualInjection
    Constructing 3-D injection
Selecting distribution model fixedValue
Selecting dispersion model none
Selecting patch interaction model localInteraction
    Interaction fields will not be written
Selecting stochastic collision model none
Selecting surface film model none
Selecting packing model none
Selecting damping model none
Selecting isotropy model none
Selecting U integration scheme Euler

Constructing surface film model
Selecting surfaceFilmModel none
No finite volume options present
Courant Number mean: 2.89431 max: 185.53

Starting time loop

Courant Number mean: 2.89431 max: 185.53
Time = 503


Solving3-D cloud kinematicCloud

Cloud: kinematicCloud injector: p1
    Added 500 new parcels

Cloud: kinematicCloud
    Current number of parcels       = 500
    Current mass in system          = 8.67211e-05
    Linear momentum                 = (5.36888e-05 -2.72899e-07 -5.56942e-06)
   |Linear momentum|                = 5.39776e-05
    Linear kinetic energy           = 2.35022e-05
    Average particle per parcel     = 1
    Injector p1:
      - parcels added               = 500
      - mass introduced             = 8.67211e-05
    Injector p2:
      - parcels added               = 0
      - mass introduced             = 0
    Injector p3:
      - parcels added               = 0
      - mass introduced             = 0
    Injector p4:
      - parcels added               = 0
      - mass introduced             = 0
    Injector p5:
      - parcels added               = 0
      - mass introduced             = 0
    Injector p6:
      - parcels added               = 0
      - mass introduced             = 0
    Injector p7:
      - parcels added               = 0
      - mass introduced             = 0
    Injector p8:
      - parcels added               = 0
      - mass introduced             = 0
    Injector p9:
      - parcels added               = 0
      - mass introduced             = 0
    Injector p10:
      - parcels added               = 0
      - mass introduced             = 0
    Injector p11:
      - parcels added               = 0
      - mass introduced             = 0
    Injector p12:
      - parcels added               = 0
      - mass introduced             = 0
    Injector p13:
      - parcels added               = 0
      - mass introduced             = 0
    Injector p14:
      - parcels added               = 0
      - mass introduced             = 0
    Surface film:
      - parcels absorbed            = 0
      - mass absorbed               = 0
      - parcels ejected             = 0
    Parcel fate: system (number, mass)
      - escape                      = 0, 0
    Parcel fate: patch free_surface (number, mass)
      - escape                      = 0, 0
      - stick                       = 0, 0
    Parcel fate: patch walls (number, mass)
      - escape                      = 0, 0
      - stick                       = 0, 0
    Parcel fate: patch inlet (number, mass)
      - escape                      = 0, 0
      - stick                       = 0, 0
    Parcel fate: patch outlet (number, mass)
      - escape                      = 0, 0
      - stick                       = 0, 0

PIMPLE: iteration 1
DILUPBiCGStab:  Solving for Ux, Initial residual = 0.0171555, Final residual = 8.96452e-05, No Iterations 1
DILUPBiCGStab:  Solving for Uy, Initial residual = 0.0512403, Final residual = 0.000213163, No Iterations 1
DILUPBiCGStab:  Solving for Uz, Initial residual = 0.0528172, Final residual = 0.000259421, No Iterations 1
GAMG:  Solving for p, Initial residual = 0.289302, Final residual = 0.00196408, No Iterations 3
time step continuity errors : sum local = 0.000154562, global = 5.3192e-07, cumulative = 0.000434824
GAMG:  Solving for p, Initial residual = 0.197667, Final residual = 0.00132955, No Iterations 3
time step continuity errors : sum local = 0.000103253, global = 5.03507e-07, cumulative = 0.000435327
GAMG:  Solving for p, Initial residual = 0.200734, Final residual = 0.00132924, No Iterations 3
time step continuity errors : sum local = 0.000103311, global = 4.90897e-07, cumulative = 0.000435818
GAMG:  Solving for p, Initial residual = 0.200525, Final residual = 6.97147e-07, No Iterations 14
time step continuity errors : sum local = 5.41862e-08, global = 5.62674e-12, cumulative = 0.000435818
PIMPLE: iteration 2
DILUPBiCG:  Solving for Ux, Initial residual = 0.0148306, Final residual = 5.85672e-07, No Iterations 5
DILUPBiCG:  Solving for Uy, Initial residual = 0.0445343, Final residual = 3.24139e-07, No Iterations 6
DILUPBiCG:  Solving for Uz, Initial residual = 0.0451473, Final residual = 3.19423e-07, No Iterations 6
GAMG:  Solving for p, Initial residual = 0.290056, Final residual = 0.00198413, No Iterations 3
time step continuity errors : sum local = 0.000154707, global = 7.74202e-09, cumulative = 0.000435826
GAMG:  Solving for p, Initial residual = 0.197991, Final residual = 0.00134447, No Iterations 3
time step continuity errors : sum local = 0.000103638, global = -4.77356e-08, cumulative = 0.000435778
GAMG:  Solving for p, Initial residual = 0.20096, Final residual = 0.00134013, No Iterations 3
time step continuity errors : sum local = 0.000103373, global = -3.38856e-08, cumulative = 0.000435744
GAMG:  Solving for p, Initial residual = 0.200793, Final residual = 8.76581e-07, No Iterations 15
time step continuity errors : sum local = 6.76189e-08, global = 3.74484e-11, cumulative = 0.000435744
DILUPBiCGStab:  Solving for omega, Initial residual = 0.0173812, Final residual = 3.1536e-07, No Iterations 3
bounding omega, min: -0.764538 max: 233.387 average: 2.84885
DILUPBiCGStab:  Solving for k, Initial residual = 0.0385201, Final residual = 4.52575e-07, No Iterations 3
bounding k, min: -0.0922389 max: 0.800872 average: 0.00318429
PIMPLE: not converged within 2 iterations
ExecutionTime = 1.45 s  ClockTime = 1 s

Courant Number mean: 2.89676 max: 185.915
Time = 504


Solving3-D cloud kinematicCloud

Cloud: kinematicCloud injector: p2
    Added 500 new parcels

Cloud: kinematicCloud
    Current number of parcels       = 1000
    Current mass in system          = 9.75613e-05
    Linear momentum                 = (5.17764e-05 6.89482e-08 -4.69076e-06)
   |Linear momentum|                = 5.19885e-05
    Linear kinetic energy           = 2.15627e-05
    Average particle per parcel     = 1
    Injector p1:
      - parcels added               = 500
      - mass introduced             = 8.67211e-05
    Injector p2:
      - parcels added               = 500
      - mass introduced             = 1.08402e-05
    Injector p3:
      - parcels added               = 0
      - mass introduced             = 0
    Injector p4:
      - parcels added               = 0
      - mass introduced             = 0
    Injector p5:
      - parcels added               = 0
      - mass introduced             = 0
    Injector p6:
      - parcels added               = 0
      - mass introduced             = 0
    Injector p7:
      - parcels added               = 0
      - mass introduced             = 0
    Injector p8:
      - parcels added               = 0
      - mass introduced             = 0
    Injector p9:
      - parcels added               = 0
      - mass introduced             = 0
    Injector p10:
      - parcels added               = 0
      - mass introduced             = 0
    Injector p11:
      - parcels added               = 0
      - mass introduced             = 0
    Injector p12:
      - parcels added               = 0
      - mass introduced             = 0
    Injector p13:
      - parcels added               = 0
      - mass introduced             = 0
    Injector p14:
      - parcels added               = 0
      - mass introduced             = 0
    Surface film:
      - parcels absorbed            = 0
      - mass absorbed               = 0
      - parcels ejected             = 0
    Parcel fate: system (number, mass)
      - escape                      = 0, 0
    Parcel fate: patch free_surface (number, mass)
      - escape                      = 0, 0
      - stick                       = 0, 0
    Parcel fate: patch walls (number, mass)
      - escape                      = 0, 0
      - stick                       = 0, 0
    Parcel fate: patch inlet (number, mass)
      - escape                      = 0, 0
      - stick                       = 0, 0
    Parcel fate: patch outlet (number, mass)
      - escape                      = 0, 0
      - stick                       = 0, 0

PIMPLE: iteration 1
DILUPBiCGStab:  Solving for Ux, Initial residual = 0.0170315, Final residual = 8.95155e-05, No Iterations 1
DILUPBiCGStab:  Solving for Uy, Initial residual = 0.0511431, Final residual = 0.000221762, No Iterations 1
DILUPBiCGStab:  Solving for Uz, Initial residual = 0.0522326, Final residual = 0.000260826, No Iterations 1
GAMG:  Solving for p, Initial residual = 0.295387, Final residual = 0.00184328, No Iterations 3
time step continuity errors : sum local = 0.000140982, global = -1.52806e-07, cumulative = 0.000435592
GAMG:  Solving for p, Initial residual = 0.201779, Final residual = 0.00125116, No Iterations 3
time step continuity errors : sum local = 9.44142e-05, global = -1.70841e-07, cumulative = 0.000435421
GAMG:  Solving for p, Initial residual = 0.204551, Final residual = 0.00124443, No Iterations 3
time step continuity errors : sum local = 9.39928e-05, global = -1.42244e-07, cumulative = 0.000435279
GAMG:  Solving for p, Initial residual = 0.204414, Final residual = 8.78414e-07, No Iterations 14
time step continuity errors : sum local = 6.63538e-08, global = 5.9523e-12, cumulative = 0.000435279
PIMPLE: iteration 2
DILUPBiCG:  Solving for Ux, Initial residual = 0.0146685, Final residual = 2.92054e-08, No Iterations 7
DILUPBiCG:  Solving for Uy, Initial residual = 0.0441809, Final residual = 3.69175e-08, No Iterations 7
DILUPBiCG:  Solving for Uz, Initial residual = 0.0442305, Final residual = 4.54404e-07, No Iterations 6
GAMG:  Solving for p, Initial residual = 0.2975, Final residual = 0.00188393, No Iterations 3
time step continuity errors : sum local = 0.000142615, global = -5.83102e-07, cumulative = 0.000434695
GAMG:  Solving for p, Initial residual = 0.20293, Final residual = 0.00125266, No Iterations 3
time step continuity errors : sum local = 9.3782e-05, global = -6.78571e-09, cumulative = 0.000434689
GAMG:  Solving for p, Initial residual = 0.205667, Final residual = 0.00124693, No Iterations 3
time step continuity errors : sum local = 9.34631e-05, global = -3.88071e-07, cumulative = 0.000434301
GAMG:  Solving for p, Initial residual = 0.205584, Final residual = 2.37634e-07, No Iterations 13
time step continuity errors : sum local = 1.781e-08, global = 2.23389e-13, cumulative = 0.000434301
DILUPBiCGStab:  Solving for omega, Initial residual = 0.0191954, Final residual = 3.43707e-07, No Iterations 3
bounding omega, min: -4.95142 max: 210.883 average: 2.82368
DILUPBiCGStab:  Solving for k, Initial residual = 0.0405226, Final residual = 6.08898e-07, No Iterations 3
bounding k, min: -0.0753987 max: 0.747104 average: 0.00312313
PIMPLE: not converged within 2 iterations
ExecutionTime = 2.25 s  ClockTime = 2 s

Courant Number mean: 2.89904 max: 190.51
Time = 505


Solving3-D cloud kinematicCloud

Cloud: kinematicCloud injector: p3
    Added 500 new parcels

Cloud: kinematicCloud
    Current number of parcels       = 1500
    Current mass in system          = 9.99027e-05
    Linear momentum                 = (3.78139e-05 -3.09006e-06 -5.05712e-06)
   |Linear momentum|                = 3.82755e-05
    Linear kinetic energy           = 1.33983e-05
    Average particle per parcel     = 1
    Injector p1:
      - parcels added               = 500
      - mass introduced             = 8.67211e-05
    Injector p2:
      - parcels added               = 500
      - mass introduced             = 1.08402e-05
    Injector p3:
      - parcels added               = 500
      - mass introduced             = 2.34147e-06
    Injector p4:
      - parcels added               = 0
      - mass introduced             = 0
    Injector p5:
      - parcels added               = 0
      - mass introduced             = 0
    Injector p6:
      - parcels added               = 0
      - mass introduced             = 0
    Injector p7:
      - parcels added               = 0
      - mass introduced             = 0
    Injector p8:
      - parcels added               = 0
      - mass introduced             = 0
    Injector p9:
      - parcels added               = 0
      - mass introduced             = 0
    Injector p10:
      - parcels added               = 0
      - mass introduced             = 0
    Injector p11:
      - parcels added               = 0
      - mass introduced             = 0
    Injector p12:
      - parcels added               = 0
      - mass introduced             = 0
    Injector p13:
      - parcels added               = 0
      - mass introduced             = 0
    Injector p14:
      - parcels added               = 0
      - mass introduced             = 0
    Surface film:
      - parcels absorbed            = 0
      - mass absorbed               = 0
      - parcels ejected             = 0
    Parcel fate: system (number, mass)
      - escape                      = 0, 0
    Parcel fate: patch free_surface (number, mass)
      - escape                      = 0, 0
      - stick                       = 0, 0
    Parcel fate: patch walls (number, mass)
      - escape                      = 0, 0
      - stick                       = 0, 0
    Parcel fate: patch inlet (number, mass)
      - escape                      = 0, 0
      - stick                       = 0, 0
    Parcel fate: patch outlet (number, mass)
      - escape                      = 0, 0
      - stick                       = 0, 0

PIMPLE: iteration 1
DILUPBiCGStab:  Solving for Ux, Initial residual = 0.0168604, Final residual = 8.64973e-05, No Iterations 1
DILUPBiCGStab:  Solving for Uy, Initial residual = 0.0508969, Final residual = 0.00022861, No Iterations 1
DILUPBiCGStab:  Solving for Uz, Initial residual = 0.0514079, Final residual = 0.00026325, No Iterations 1
GAMG:  Solving for p, Initial residual = 0.29934, Final residual = 0.00193515, No Iterations 3
time step continuity errors : sum local = 0.000144272, global = -3.9456e-07, cumulative = 0.000433906
GAMG:  Solving for p, Initial residual = 0.204271, Final residual = 0.00127619, No Iterations 3
time step continuity errors : sum local = 9.3867e-05, global = -3.81648e-07, cumulative = 0.000433524
GAMG:  Solving for p, Initial residual = 0.20701, Final residual = 0.00126222, No Iterations 3
time step continuity errors : sum local = 9.29428e-05, global = -3.29011e-07, cumulative = 0.000433195
GAMG:  Solving for p, Initial residual = 0.206862, Final residual = 9.03609e-07, No Iterations 11
time step continuity errors : sum local = 6.65417e-08, global = 1.4087e-11, cumulative = 0.000433195
PIMPLE: iteration 2
DILUPBiCG:  Solving for Ux, Initial residual = 0.0144413, Final residual = 2.74773e-08, No Iterations 7
DILUPBiCG:  Solving for Uy, Initial residual = 0.0438804, Final residual = 5.17501e-07, No Iterations 6
DILUPBiCG:  Solving for Uz, Initial residual = 0.0431569, Final residual = 6.03432e-07, No Iterations 6
GAMG:  Solving for p, Initial residual = 0.296819, Final residual = 0.00200812, No Iterations 3
time step continuity errors : sum local = 0.000148542, global = -6.31201e-07, cumulative = 0.000432564
GAMG:  Solving for p, Initial residual = 0.201541, Final residual = 0.00132509, No Iterations 3
time step continuity errors : sum local = 9.69607e-05, global = -5.98876e-07, cumulative = 0.000431965
GAMG:  Solving for p, Initial residual = 0.204407, Final residual = 0.00131, No Iterations 3
time step continuity errors : sum local = 9.5963e-05, global = -5.75297e-07, cumulative = 0.00043139
GAMG:  Solving for p, Initial residual = 0.204289, Final residual = 3.1385e-07, No Iterations 13
time step continuity errors : sum local = 2.2992e-08, global = -1.19061e-11, cumulative = 0.00043139
DILUPBiCGStab:  Solving for omega, Initial residual = 0.01968, Final residual = 6.27128e-07, No Iterations 3
bounding omega, min: -0.286449 max: 157.847 average: 2.79831
DILUPBiCGStab:  Solving for k, Initial residual = 0.0415556, Final residual = 8.78294e-07, No Iterations 3
bounding k, min: -0.0191385 max: 0.531473 average: 0.00305701
PIMPLE: not converged within 2 iterations
ExecutionTime = 3.16 s  ClockTime = 3 s

Courant Number mean: 2.90079 max: 192.374
Time = 506


Solving3-D cloud kinematicCloud

Cloud: kinematicCloud injector: p4
    Added 500 new parcels

Cloud: kinematicCloud
    Current number of parcels       = 2000
    Current mass in system          = 0.000100826
    Linear momentum                 = (2.55681e-05 -6.24071e-07 -5.72513e-06)
   |Linear momentum|                = 2.62086e-05
    Linear kinetic energy           = 7.50187e-06
    Average particle per parcel     = 1
    Injector p1:
      - parcels added               = 500
      - mass introduced             = 8.67211e-05
    Injector p2:
      - parcels added               = 500
      - mass introduced             = 1.08402e-05
    Injector p3:
      - parcels added               = 500
      - mass introduced             = 2.34147e-06
    Injector p4:
      - parcels added               = 500
      - mass introduced             = 9.23406e-07
    Injector p5:
      - parcels added               = 0
      - mass introduced             = 0
    Injector p6:
      - parcels added               = 0
      - mass introduced             = 0
    Injector p7:
      - parcels added               = 0
      - mass introduced             = 0
    Injector p8:
      - parcels added               = 0
      - mass introduced             = 0
    Injector p9:
      - parcels added               = 0
      - mass introduced             = 0
    Injector p10:
      - parcels added               = 0
      - mass introduced             = 0
    Injector p11:
      - parcels added               = 0
      - mass introduced             = 0
    Injector p12:
      - parcels added               = 0
      - mass introduced             = 0
    Injector p13:
      - parcels added               = 0
      - mass introduced             = 0
    Injector p14:
      - parcels added               = 0
      - mass introduced             = 0
    Surface film:
      - parcels absorbed            = 0
      - mass absorbed               = 0
      - parcels ejected             = 0
    Parcel fate: system (number, mass)
      - escape                      = 0, 0
    Parcel fate: patch free_surface (number, mass)
      - escape                      = 0, 0
      - stick                       = 0, 0
    Parcel fate: patch walls (number, mass)
      - escape                      = 0, 0
      - stick                       = 0, 0
    Parcel fate: patch inlet (number, mass)
      - escape                      = 0, 0
      - stick                       = 0, 0
    Parcel fate: patch outlet (number, mass)
      - escape                      = 0, 0
      - stick                       = 0, 0

PIMPLE: iteration 1
DILUPBiCGStab:  Solving for Ux, Initial residual = 0.0165968, Final residual = 8.31234e-05, No Iterations 1
DILUPBiCGStab:  Solving for Uy, Initial residual = 0.0506615, Final residual = 0.000237785, No Iterations 1
DILUPBiCGStab:  Solving for Uz, Initial residual = 0.0501815, Final residual = 0.000266798, No Iterations 1
GAMG:  Solving for p, Initial residual = 0.296994, Final residual = 0.00189676, No Iterations 3
time step continuity errors : sum local = 0.000138403, global = -2.5181e-07, cumulative = 0.000431138
GAMG:  Solving for p, Initial residual = 0.201804, Final residual = 0.00127167, No Iterations 3
time step continuity errors : sum local = 9.16387e-05, global = -2.5941e-07, cumulative = 0.000430879
GAMG:  Solving for p, Initial residual = 0.204605, Final residual = 0.00125299, No Iterations 3
time step continuity errors : sum local = 9.04072e-05, global = -9.00887e-08, cumulative = 0.000430789
GAMG:  Solving for p, Initial residual = 0.204442, Final residual = 3.83531e-07, No Iterations 13
time step continuity errors : sum local = 2.76753e-08, global = 1.40097e-12, cumulative = 0.000430789
PIMPLE: iteration 2
DILUPBiCG:  Solving for Ux, Initial residual = 0.0141952, Final residual = 1.97429e-08, No Iterations 7
DILUPBiCG:  Solving for Uy, Initial residual = 0.0433807, Final residual = 4.28683e-07, No Iterations 6
DILUPBiCG:  Solving for Uz, Initial residual = 0.0420105, Final residual = 1.0035e-07, No Iterations 7
GAMG:  Solving for p, Initial residual = 0.294973, Final residual = 0.00191261, No Iterations 3
time step continuity errors : sum local = 0.00013839, global = -3.92784e-07, cumulative = 0.000430396
GAMG:  Solving for p, Initial residual = 0.199895, Final residual = 0.00128291, No Iterations 3
time step continuity errors : sum local = 9.18999e-05, global = -3.89033e-07, cumulative = 0.000430007
GAMG:  Solving for p, Initial residual = 0.2027, Final residual = 0.0012662, No Iterations 3
time step continuity errors : sum local = 9.08034e-05, global = -3.70445e-07, cumulative = 0.000429636
GAMG:  Solving for p, Initial residual = 0.202582, Final residual = 5.82378e-07, No Iterations 13
time step continuity errors : sum local = 4.17672e-08, global = 8.81178e-12, cumulative = 0.000429636
DILUPBiCGStab:  Solving for omega, Initial residual = 0.0196363, Final residual = 5.5826e-07, No Iterations 3
bounding omega, min: -1.16049 max: 112.638 average: 2.77228
DILUPBiCGStab:  Solving for k, Initial residual = 0.0416963, Final residual = 2.94583e-07, No Iterations 3
bounding k, min: -0.00770045 max: 0.345826 average: 0.00299046
PIMPLE: not converged within 2 iterations
ExecutionTime = 4.21 s  ClockTime = 4 s

Courant Number mean: 2.90199 max: 190.744
Time = 507


Solving3-D cloud kinematicCloud

Cloud: kinematicCloud injector: p5
    Added 500 new parcels

Cloud: kinematicCloud
    Current number of parcels       = 2500
    Current mass in system          = 0.000101119
    Linear momentum                 = (1.98151e-05 3.67935e-07 -7.27907e-06)
   |Linear momentum|                = 2.1113e-05
    Linear kinetic energy           = 5.04439e-06
    Average particle per parcel     = 1
    Injector p1:
      - parcels added               = 500
      - mass introduced             = 8.67211e-05
    Injector p2:
      - parcels added               = 500
      - mass introduced             = 1.08402e-05
    Injector p3:
      - parcels added               = 500
      - mass introduced             = 2.34147e-06
    Injector p4:
      - parcels added               = 500
      - mass introduced             = 9.23406e-07
    Injector p5:
      - parcels added               = 500
      - mass introduced             = 2.92684e-07
    Injector p6:
      - parcels added               = 0
      - mass introduced             = 0
    Injector p7:
      - parcels added               = 0
      - mass introduced             = 0
    Injector p8:
      - parcels added               = 0
      - mass introduced             = 0
    Injector p9:
      - parcels added               = 0
      - mass introduced             = 0
    Injector p10:
      - parcels added               = 0
      - mass introduced             = 0
    Injector p11:
      - parcels added               = 0
      - mass introduced             = 0
    Injector p12:
      - parcels added               = 0
      - mass introduced             = 0
    Injector p13:
      - parcels added               = 0
      - mass introduced             = 0
    Injector p14:
      - parcels added               = 0
      - mass introduced             = 0
    Surface film:
      - parcels absorbed            = 0
      - mass absorbed               = 0
      - parcels ejected             = 0
    Parcel fate: system (number, mass)
      - escape                      = 0, 0
    Parcel fate: patch free_surface (number, mass)
      - escape                      = 0, 0
      - stick                       = 0, 0
    Parcel fate: patch walls (number, mass)
      - escape                      = 0, 0
      - stick                       = 0, 0
    Parcel fate: patch inlet (number, mass)
      - escape                      = 0, 0
      - stick                       = 0, 0
    Parcel fate: patch outlet (number, mass)
      - escape                      = 0, 0
      - stick                       = 0, 0

PIMPLE: iteration 1
DILUPBiCGStab:  Solving for Ux, Initial residual = 0.0164, Final residual = 8.04716e-05, No Iterations 1
DILUPBiCGStab:  Solving for Uy, Initial residual = 0.0502497, Final residual = 0.000242392, No Iterations 1
DILUPBiCGStab:  Solving for Uz, Initial residual = 0.049185, Final residual = 0.000267997, No Iterations 1
GAMG:  Solving for p, Initial residual = 0.295746, Final residual = 0.00176285, No Iterations 3
time step continuity errors : sum local = 0.000125453, global = 6.50303e-08, cumulative = 0.000429702
GAMG:  Solving for p, Initial residual = 0.200882, Final residual = 0.00118511, No Iterations 3
time step continuity errors : sum local = 8.32121e-05, global = -9.82938e-08, cumulative = 0.000429603
GAMG:  Solving for p, Initial residual = 0.203615, Final residual = 0.00117393, No Iterations 3
time step continuity errors : sum local = 8.25254e-05, global = 2.98064e-08, cumulative = 0.000429633
GAMG:  Solving for p, Initial residual = 0.203526, Final residual = 5.80068e-07, No Iterations 15
time step continuity errors : sum local = 4.07816e-08, global = -1.1246e-13, cumulative = 0.000429633
PIMPLE: iteration 2
DILUPBiCG:  Solving for Ux, Initial residual = 0.0140135, Final residual = 2.0764e-08, No Iterations 7
DILUPBiCG:  Solving for Uy, Initial residual = 0.0427701, Final residual = 4.21243e-07, No Iterations 6
DILUPBiCG:  Solving for Uz, Initial residual = 0.040995, Final residual = 7.59224e-08, No Iterations 7
GAMG:  Solving for p, Initial residual = 0.294346, Final residual = 0.0018222, No Iterations 3
time step continuity errors : sum local = 0.000128151, global = -2.80125e-07, cumulative = 0.000429353
GAMG:  Solving for p, Initial residual = 0.199327, Final residual = 0.00121185, No Iterations 3
time step continuity errors : sum local = 8.43162e-05, global = -2.8115e-07, cumulative = 0.000429072
GAMG:  Solving for p, Initial residual = 0.202099, Final residual = 0.00120547, No Iterations 3
time step continuity errors : sum local = 8.39622e-05, global = -2.60145e-07, cumulative = 0.000428812
GAMG:  Solving for p, Initial residual = 0.202019, Final residual = 9.00191e-07, No Iterations 14
time step continuity errors : sum local = 6.27073e-08, global = -2.51492e-11, cumulative = 0.000428812
DILUPBiCGStab:  Solving for omega, Initial residual = 0.0197673, Final residual = 4.69453e-08, No Iterations 4
bounding omega, min: -0.238473 max: 87.603 average: 2.7505
DILUPBiCGStab:  Solving for k, Initial residual = 0.0417207, Final residual = 2.5758e-07, No Iterations 3
bounding k, min: -0.0202264 max: 0.255842 average: 0.00292894
PIMPLE: not converged within 2 iterations
ExecutionTime = 5.38 s  ClockTime = 5 s

Courant Number mean: 2.9032 max: 188.63
Time = 508


Solving3-D cloud kinematicCloud

Cloud: kinematicCloud injector: p6
    Added 500 new parcels

Cloud: kinematicCloud
    Current number of parcels       = 3000
    Current mass in system          = 0.000101222
    Linear momentum                 = (1.56041e-05 1.30075e-07 -7.14367e-06)
   |Linear momentum|                = 1.7162e-05
    Linear kinetic energy           = 3.2498e-06
    Average particle per parcel     = 1
    Injector p1:
      - parcels added               = 500
      - mass introduced             = 8.67211e-05
    Injector p2:
      - parcels added               = 500
      - mass introduced             = 1.08402e-05
    Injector p3:
      - parcels added               = 500
      - mass introduced             = 2.34147e-06
    Injector p4:
      - parcels added               = 500
      - mass introduced             = 9.23406e-07
    Injector p5:
      - parcels added               = 500
      - mass introduced             = 2.92684e-07
    Injector p6:
      - parcels added               = 500
      - mass introduced             = 1.03286e-07
    Injector p7:
      - parcels added               = 0
      - mass introduced             = 0
    Injector p8:
      - parcels added               = 0
      - mass introduced             = 0
    Injector p9:
      - parcels added               = 0
      - mass introduced             = 0
    Injector p10:
      - parcels added               = 0
      - mass introduced             = 0
    Injector p11:
      - parcels added               = 0
      - mass introduced             = 0
    Injector p12:
      - parcels added               = 0
      - mass introduced             = 0
    Injector p13:
      - parcels added               = 0
      - mass introduced             = 0
    Injector p14:
      - parcels added               = 0
      - mass introduced             = 0
    Surface film:
      - parcels absorbed            = 0
      - mass absorbed               = 0
      - parcels ejected             = 0
    Parcel fate: system (number, mass)
      - escape                      = 0, 0
    Parcel fate: patch free_surface (number, mass)
      - escape                      = 0, 0
      - stick                       = 0, 0
    Parcel fate: patch walls (number, mass)
      - escape                      = 0, 0
      - stick                       = 0, 0
    Parcel fate: patch inlet (number, mass)
      - escape                      = 0, 0
      - stick                       = 0, 0
    Parcel fate: patch outlet (number, mass)
      - escape                      = 0, 0
      - stick                       = 0, 0

PIMPLE: iteration 1
DILUPBiCGStab:  Solving for Ux, Initial residual = 0.016194, Final residual = 7.77326e-05, No Iterations 1
DILUPBiCGStab:  Solving for Uy, Initial residual = 0.0498292, Final residual = 0.000240155, No Iterations 1
DILUPBiCGStab:  Solving for Uz, Initial residual = 0.0481604, Final residual = 0.000238365, No Iterations 1
GAMG:  Solving for p, Initial residual = 0.293341, Final residual = 0.00167419, No Iterations 3
time step continuity errors : sum local = 0.000115883, global = 4.3591e-09, cumulative = 0.000428816
GAMG:  Solving for p, Initial residual = 0.19875, Final residual = 0.00111565, No Iterations 3
time step continuity errors : sum local = 7.62048e-05, global = -6.33615e-09, cumulative = 0.00042881
GAMG:  Solving for p, Initial residual = 0.201399, Final residual = 0.0011116, No Iterations 3
time step continuity errors : sum local = 7.60187e-05, global = -2.02074e-08, cumulative = 0.000428789
GAMG:  Solving for p, Initial residual = 0.201315, Final residual = 2.27337e-07, No Iterations 14
time step continuity errors : sum local = 1.55497e-08, global = -2.49338e-12, cumulative = 0.000428789
PIMPLE: iteration 2
DILUPBiCG:  Solving for Ux, Initial residual = 0.0137861, Final residual = 8.73001e-07, No Iterations 6
DILUPBiCG:  Solving for Uy, Initial residual = 0.0422931, Final residual = 8.46027e-07, No Iterations 6
DILUPBiCG:  Solving for Uz, Initial residual = 0.0400049, Final residual = 5.32972e-08, No Iterations 7
GAMG:  Solving for p, Initial residual = 0.290016, Final residual = 0.00169658, No Iterations 3
time step continuity errors : sum local = 0.00011652, global = -2.49863e-07, cumulative = 0.00042854
GAMG:  Solving for p, Initial residual = 0.195691, Final residual = 0.00111886, No Iterations 3
time step continuity errors : sum local = 7.60326e-05, global = -2.67059e-07, cumulative = 0.000428272
GAMG:  Solving for p, Initial residual = 0.198421, Final residual = 0.00111615, No Iterations 3
time step continuity errors : sum local = 7.59294e-05, global = -2.31689e-07, cumulative = 0.000428041
GAMG:  Solving for p, Initial residual = 0.198347, Final residual = 8.44917e-07, No Iterations 13
time step continuity errors : sum local = 5.74855e-08, global = -2.19238e-13, cumulative = 0.000428041
DILUPBiCGStab:  Solving for omega, Initial residual = 0.0196696, Final residual = 7.97322e-09, No Iterations 4
bounding omega, min: -0.256001 max: 70.625 average: 2.72935
DILUPBiCGStab:  Solving for k, Initial residual = 0.0418611, Final residual = 2.76934e-07, No Iterations 3
bounding k, min: -0.00639664 max: 0.197966 average: 0.00287338
PIMPLE: not converged within 2 iterations
ExecutionTime = 6.59 s  ClockTime = 6 s

Courant Number mean: 2.90415 max: 187.872
Time = 509


Solving3-D cloud kinematicCloud

Cloud: kinematicCloud injector: p7
    Added 500 new parcels

Cloud: kinematicCloud
    Current number of parcels       = 3500
    Current mass in system          = 0.000101246
    Linear momentum                 = (1.19794e-05 -1.35419e-07 -6.16097e-06)
   |Linear momentum|                = 1.34715e-05
    Linear kinetic energy           = 2.14841e-06
    Average particle per parcel     = 1
    Injector p1:
      - parcels added               = 500
      - mass introduced             = 8.67211e-05
    Injector p2:
      - parcels added               = 500
      - mass introduced             = 1.08402e-05
    Injector p3:
      - parcels added               = 500
      - mass introduced             = 2.34147e-06
    Injector p4:
      - parcels added               = 500
      - mass introduced             = 9.23406e-07
    Injector p5:
      - parcels added               = 500
      - mass introduced             = 2.92684e-07
    Injector p6:
      - parcels added               = 500
      - mass introduced             = 1.03286e-07
    Injector p7:
      - parcels added               = 500
      - mass introduced             = 2.40363e-08
    Injector p8:
      - parcels added               = 0
      - mass introduced             = 0
    Injector p9:
      - parcels added               = 0
      - mass introduced             = 0
    Injector p10:
      - parcels added               = 0
      - mass introduced             = 0
    Injector p11:
      - parcels added               = 0
      - mass introduced             = 0
    Injector p12:
      - parcels added               = 0
      - mass introduced             = 0
    Injector p13:
      - parcels added               = 0
      - mass introduced             = 0
    Injector p14:
      - parcels added               = 0
      - mass introduced             = 0
    Surface film:
      - parcels absorbed            = 0
      - mass absorbed               = 0
      - parcels ejected             = 0
    Parcel fate: system (number, mass)
      - escape                      = 0, 0
    Parcel fate: patch free_surface (number, mass)
      - escape                      = 0, 0
      - stick                       = 0, 0
    Parcel fate: patch walls (number, mass)
      - escape                      = 0, 0
      - stick                       = 0, 0
    Parcel fate: patch inlet (number, mass)
      - escape                      = 0, 0
      - stick                       = 0, 0
    Parcel fate: patch outlet (number, mass)
      - escape                      = 0, 0
      - stick                       = 0, 0

PIMPLE: iteration 1
DILUPBiCGStab:  Solving for Ux, Initial residual = 0.0159469, Final residual = 7.65083e-05, No Iterations 1
DILUPBiCGStab:  Solving for Uy, Initial residual = 0.0493573, Final residual = 0.000237615, No Iterations 1
DILUPBiCGStab:  Solving for Uz, Initial residual = 0.0474296, Final residual = 0.00021862, No Iterations 1
GAMG:  Solving for p, Initial residual = 0.288071, Final residual = 0.00156985, No Iterations 3
time step continuity errors : sum local = 0.000106419, global = -1.31296e-07, cumulative = 0.000427909
GAMG:  Solving for p, Initial residual = 0.194186, Final residual = 0.00103956, No Iterations 3
time step continuity errors : sum local = 6.96535e-05, global = -1.28577e-07, cumulative = 0.000427781
GAMG:  Solving for p, Initial residual = 0.196872, Final residual = 0.00103764, No Iterations 3
time step continuity errors : sum local = 6.96017e-05, global = -9.95414e-08, cumulative = 0.000427681
GAMG:  Solving for p, Initial residual = 0.196811, Final residual = 3.26994e-07, No Iterations 14
time step continuity errors : sum local = 2.19372e-08, global = 9.15256e-14, cumulative = 0.000427681
PIMPLE: iteration 2
DILUPBiCG:  Solving for Ux, Initial residual = 0.0135132, Final residual = 6.91445e-07, No Iterations 5
DILUPBiCG:  Solving for Uy, Initial residual = 0.0416815, Final residual = 5.63151e-08, No Iterations 7
DILUPBiCG:  Solving for Uz, Initial residual = 0.0393629, Final residual = 1.66043e-07, No Iterations 7
GAMG:  Solving for p, Initial residual = 0.285443, Final residual = 0.00157569, No Iterations 3
time step continuity errors : sum local = 0.0001064, global = -2.39538e-07, cumulative = 0.000427442
GAMG:  Solving for p, Initial residual = 0.191536, Final residual = 0.00103017, No Iterations 3
time step continuity errors : sum local = 6.89912e-05, global = -3.20648e-07, cumulative = 0.000427121
GAMG:  Solving for p, Initial residual = 0.194306, Final residual = 0.00102918, No Iterations 3
time step continuity errors : sum local = 6.89948e-05, global = -2.40778e-07, cumulative = 0.00042688
GAMG:  Solving for p, Initial residual = 0.194239, Final residual = 6.48985e-07, No Iterations 15
time step continuity errors : sum local = 4.35124e-08, global = 8.94313e-12, cumulative = 0.00042688
DILUPBiCGStab:  Solving for omega, Initial residual = 0.0195722, Final residual = 8.14982e-09, No Iterations 4
bounding omega, min: -0.285607 max: 57.6747 average: 2.71066
DILUPBiCGStab:  Solving for k, Initial residual = 0.0417311, Final residual = 2.61978e-07, No Iterations 3
bounding k, min: -0.00595022 max: 0.15041 average: 0.00282191
PIMPLE: not converged within 2 iterations
ExecutionTime = 7.88 s  ClockTime = 8 s

Courant Number mean: 2.90437 max: 188.343
Time = 510


Solving3-D cloud kinematicCloud

Cloud: kinematicCloud injector: p8
    Added 500 new parcels

Cloud: kinematicCloud
    Current number of parcels       = 4000
    Current mass in system          = 0.000101253
    Linear momentum                 = (9.25108e-06 -1.73437e-07 -5.21312e-06)
   |Linear momentum|                = 1.06202e-05
    Linear kinetic energy           = 1.45272e-06
    Average particle per parcel     = 1
    Injector p1:
      - parcels added               = 500
      - mass introduced             = 8.67211e-05
    Injector p2:
      - parcels added               = 500
      - mass introduced             = 1.08402e-05
    Injector p3:
      - parcels added               = 500
      - mass introduced             = 2.34147e-06
    Injector p4:
      - parcels added               = 500
      - mass introduced             = 9.23406e-07
    Injector p5:
      - parcels added               = 500
      - mass introduced             = 2.92684e-07
    Injector p6:
      - parcels added               = 500
      - mass introduced             = 1.03286e-07
    Injector p7:
      - parcels added               = 500
      - mass introduced             = 2.40363e-08
    Injector p8:
      - parcels added               = 500
      - mass introduced             = 6.61032e-09
    Injector p9:
      - parcels added               = 0
      - mass introduced             = 0
    Injector p10:
      - parcels added               = 0
      - mass introduced             = 0
    Injector p11:
      - parcels added               = 0
      - mass introduced             = 0
    Injector p12:
      - parcels added               = 0
      - mass introduced             = 0
    Injector p13:
      - parcels added               = 0
      - mass introduced             = 0
    Injector p14:
      - parcels added               = 0
      - mass introduced             = 0
    Surface film:
      - parcels absorbed            = 0
      - mass absorbed               = 0
      - parcels ejected             = 0
    Parcel fate: system (number, mass)
      - escape                      = 0, 0
    Parcel fate: patch free_surface (number, mass)
      - escape                      = 0, 0
      - stick                       = 0, 0
    Parcel fate: patch walls (number, mass)
      - escape                      = 0, 0
      - stick                       = 0, 0
    Parcel fate: patch inlet (number, mass)
      - escape                      = 0, 0
      - stick                       = 0, 0
    Parcel fate: patch outlet (number, mass)
      - escape                      = 0, 0
      - stick                       = 0, 0

PIMPLE: iteration 1
DILUPBiCGStab:  Solving for Ux, Initial residual = 0.0156585, Final residual = 7.62846e-05, No Iterations 1
DILUPBiCGStab:  Solving for Uy, Initial residual = 0.0490711, Final residual = 0.000237378, No Iterations 1
DILUPBiCGStab:  Solving for Uz, Initial residual = 0.0467782, Final residual = 0.000223608, No Iterations 1
GAMG:  Solving for p, Initial residual = 0.285711, Final residual = 0.00152524, No Iterations 3
time step continuity errors : sum local = 0.000102007, global = -2.88246e-07, cumulative = 0.000426592
GAMG:  Solving for p, Initial residual = 0.192193, Final residual = 0.00101167, No Iterations 3
time step continuity errors : sum local = 6.69898e-05, global = -1.46641e-07, cumulative = 0.000426446
GAMG:  Solving for p, Initial residual = 0.194806, Final residual = 0.00101197, No Iterations 3
time step continuity errors : sum local = 6.7083e-05, global = -1.15766e-07, cumulative = 0.00042633
GAMG:  Solving for p, Initial residual = 0.194719, Final residual = 8.26195e-07, No Iterations 12
time step continuity errors : sum local = 5.47761e-08, global = -1.6455e-11, cumulative = 0.00042633
PIMPLE: iteration 2
DILUPBiCG:  Solving for Ux, Initial residual = 0.0132112, Final residual = 6.11536e-07, No Iterations 5
DILUPBiCG:  Solving for Uy, Initial residual = 0.0414214, Final residual = 9.91699e-07, No Iterations 5
DILUPBiCG:  Solving for Uz, Initial residual = 0.0385999, Final residual = 6.93082e-07, No Iterations 6
GAMG:  Solving for p, Initial residual = 0.285239, Final residual = 0.00152958, No Iterations 3
time step continuity errors : sum local = 0.000102079, global = -3.89059e-07, cumulative = 0.000425941
GAMG:  Solving for p, Initial residual = 0.19076, Final residual = 0.000994551, No Iterations 3
time step continuity errors : sum local = 6.59382e-05, global = -3.84057e-07, cumulative = 0.000425557
GAMG:  Solving for p, Initial residual = 0.193533, Final residual = 0.000995409, No Iterations 3
time step continuity errors : sum local = 6.60651e-05, global = -3.68964e-07, cumulative = 0.000425188
GAMG:  Solving for p, Initial residual = 0.193472, Final residual = 5.64282e-07, No Iterations 13
time step continuity errors : sum local = 3.74554e-08, global = 4.23148e-13, cumulative = 0.000425188
DILUPBiCGStab:  Solving for omega, Initial residual = 0.0194697, Final residual = 8.15496e-07, No Iterations 3
bounding omega, min: -0.310473 max: 56.5988 average: 2.69219
DILUPBiCGStab:  Solving for k, Initial residual = 0.0415142, Final residual = 2.59977e-07, No Iterations 3
bounding k, min: -0.00415823 max: 0.115351 average: 0.00277501
PIMPLE: not converged within 2 iterations
ExecutionTime = 9.2 s  ClockTime = 9 s

Courant Number mean: 2.90466 max: 189.116
Time = 511


Solving3-D cloud kinematicCloud

Cloud: kinematicCloud injector: p9
    Added 500 new parcels

Cloud: kinematicCloud
    Current number of parcels       = 4500
    Current mass in system          = 0.000101254
    Linear momentum                 = (8.53585e-06 -2.28591e-08 -4.9784e-06)
   |Linear momentum|                = 9.88159e-06
    Linear kinetic energy           = 1.1845e-06
    Average particle per parcel     = 1
    Injector p1:
      - parcels added               = 500
      - mass introduced             = 8.67211e-05
    Injector p2:
      - parcels added               = 500
      - mass introduced             = 1.08402e-05
    Injector p3:
      - parcels added               = 500
      - mass introduced             = 2.34147e-06
    Injector p4:
      - parcels added               = 500
      - mass introduced             = 9.23406e-07
    Injector p5:
      - parcels added               = 500
      - mass introduced             = 2.92684e-07
    Injector p6:
      - parcels added               = 500
      - mass introduced             = 1.03286e-07
    Injector p7:
      - parcels added               = 500
      - mass introduced             = 2.40363e-08
    Injector p8:
      - parcels added               = 500
      - mass introduced             = 6.61032e-09
    Injector p9:
      - parcels added               = 500
      - mass introduced             = 1.35502e-09
    Injector p10:
      - parcels added               = 0
      - mass introduced             = 0
    Injector p11:
      - parcels added               = 0
      - mass introduced             = 0
    Injector p12:
      - parcels added               = 0
      - mass introduced             = 0
    Injector p13:
      - parcels added               = 0
      - mass introduced             = 0
    Injector p14:
      - parcels added               = 0
      - mass introduced             = 0
    Surface film:
      - parcels absorbed            = 0
      - mass absorbed               = 0
      - parcels ejected             = 0
    Parcel fate: system (number, mass)
      - escape                      = 0, 0
    Parcel fate: patch free_surface (number, mass)
      - escape                      = 0, 0
      - stick                       = 0, 0
    Parcel fate: patch walls (number, mass)
      - escape                      = 0, 0
      - stick                       = 0, 0
    Parcel fate: patch inlet (number, mass)
      - escape                      = 0, 0
      - stick                       = 0, 0
    Parcel fate: patch outlet (number, mass)
      - escape                      = 0, 0
      - stick                       = 0, 0

PIMPLE: iteration 1
DILUPBiCGStab:  Solving for Ux, Initial residual = 0.0153409, Final residual = 7.69485e-05, No Iterations 1
DILUPBiCGStab:  Solving for Uy, Initial residual = 0.0489904, Final residual = 0.000246648, No Iterations 1
DILUPBiCGStab:  Solving for Uz, Initial residual = 0.0461278, Final residual = 0.000231915, No Iterations 1
GAMG:  Solving for p, Initial residual = 0.285319, Final residual = 0.00154647, No Iterations 3
time step continuity errors : sum local = 0.000102458, global = -2.03124e-07, cumulative = 0.000424985
GAMG:  Solving for p, Initial residual = 0.191024, Final residual = 0.00102419, No Iterations 3
time step continuity errors : sum local = 6.72097e-05, global = -1.81241e-07, cumulative = 0.000424803
GAMG:  Solving for p, Initial residual = 0.193747, Final residual = 0.00102742, No Iterations 3
time step continuity errors : sum local = 6.75066e-05, global = -1.43642e-07, cumulative = 0.00042466
GAMG:  Solving for p, Initial residual = 0.193706, Final residual = 3.76716e-07, No Iterations 13
time step continuity errors : sum local = 2.47558e-08, global = 1.24336e-12, cumulative = 0.00042466
PIMPLE: iteration 2
DILUPBiCG:  Solving for Ux, Initial residual = 0.0128847, Final residual = 8.09174e-07, No Iterations 5
DILUPBiCG:  Solving for Uy, Initial residual = 0.041268, Final residual = 9.44396e-07, No Iterations 5
DILUPBiCG:  Solving for Uz, Initial residual = 0.0378564, Final residual = 4.8301e-07, No Iterations 6
GAMG:  Solving for p, Initial residual = 0.283794, Final residual = 0.00156635, No Iterations 3
time step continuity errors : sum local = 0.000103792, global = -4.06302e-07, cumulative = 0.000424253
GAMG:  Solving for p, Initial residual = 0.189602, Final residual = 0.00101876, No Iterations 3
time step continuity errors : sum local = 6.70106e-05, global = -4.07138e-07, cumulative = 0.000423846
GAMG:  Solving for p, Initial residual = 0.192363, Final residual = 0.00102291, No Iterations 3
time step continuity errors : sum local = 6.73545e-05, global = -3.87474e-07, cumulative = 0.000423459
GAMG:  Solving for p, Initial residual = 0.192288, Final residual = 9.16398e-07, No Iterations 14
time step continuity errors : sum local = 6.03497e-08, global = -3.62445e-12, cumulative = 0.000423459
DILUPBiCGStab:  Solving for omega, Initial residual = 0.0193228, Final residual = 6.90625e-07, No Iterations 3
bounding omega, min: -0.29652 max: 55 average: 2.67625
DILUPBiCGStab:  Solving for k, Initial residual = 0.0410014, Final residual = 2.29439e-07, No Iterations 3
bounding k, min: -0.00343183 max: 0.102692 average: 0.00273269
PIMPLE: not converged within 2 iterations
ExecutionTime = 10.57 s  ClockTime = 10 s

Courant Number mean: 2.90505 max: 189.765
Time = 512


Solving3-D cloud kinematicCloud

Cloud: kinematicCloud injector: p10
    Added 500 new parcels

Cloud: kinematicCloud
    Current number of parcels       = 5000
    Current mass in system          = 0.000101255
    Linear momentum                 = (7.95015e-06 -1.17557e-07 -5.00014e-06)
   |Linear momentum|                = 9.39255e-06
    Linear kinetic energy           = 9.96266e-07
    Average particle per parcel     = 1
    Injector p1:
      - parcels added               = 500
      - mass introduced             = 8.67211e-05
    Injector p2:
      - parcels added               = 500
      - mass introduced             = 1.08402e-05
    Injector p3:
      - parcels added               = 500
      - mass introduced             = 2.34147e-06
    Injector p4:
      - parcels added               = 500
      - mass introduced             = 9.23406e-07
    Injector p5:
      - parcels added               = 500
      - mass introduced             = 2.92684e-07
    Injector p6:
      - parcels added               = 500
      - mass introduced             = 1.03286e-07
    Injector p7:
      - parcels added               = 500
      - mass introduced             = 2.40363e-08
    Injector p8:
      - parcels added               = 500
      - mass introduced             = 6.61032e-09
    Injector p9:
      - parcels added               = 500
      - mass introduced             = 1.35502e-09
    Injector p10:
      - parcels added               = 500
      - mass introduced             = 4.89085e-10
    Injector p11:
      - parcels added               = 0
      - mass introduced             = 0
    Injector p12:
      - parcels added               = 0
      - mass introduced             = 0
    Injector p13:
      - parcels added               = 0
      - mass introduced             = 0
    Injector p14:
      - parcels added               = 0
      - mass introduced             = 0
    Surface film:
      - parcels absorbed            = 0
      - mass absorbed               = 0
      - parcels ejected             = 0
    Parcel fate: system (number, mass)
      - escape                      = 0, 0
    Parcel fate: patch free_surface (number, mass)
      - escape                      = 0, 0
      - stick                       = 0, 0
    Parcel fate: patch walls (number, mass)
      - escape                      = 0, 0
      - stick                       = 0, 0
    Parcel fate: patch inlet (number, mass)
      - escape                      = 0, 0
      - stick                       = 0, 0
    Parcel fate: patch outlet (number, mass)
      - escape                      = 0, 0
      - stick                       = 0, 0

PIMPLE: iteration 1
DILUPBiCGStab:  Solving for Ux, Initial residual = 0.0150175, Final residual = 7.75191e-05, No Iterations 1
DILUPBiCGStab:  Solving for Uy, Initial residual = 0.0490602, Final residual = 0.000268995, No Iterations 1
DILUPBiCGStab:  Solving for Uz, Initial residual = 0.0452975, Final residual = 0.000228315, No Iterations 1
GAMG:  Solving for p, Initial residual = 0.284098, Final residual = 0.00158867, No Iterations 3
time step continuity errors : sum local = 0.000104492, global = -3.62988e-07, cumulative = 0.000423096
GAMG:  Solving for p, Initial residual = 0.189796, Final residual = 0.00104841, No Iterations 3
time step continuity errors : sum local = 6.83602e-05, global = -2.06595e-07, cumulative = 0.000422889
GAMG:  Solving for p, Initial residual = 0.192561, Final residual = 0.00105314, No Iterations 3
time step continuity errors : sum local = 6.87427e-05, global = -1.6595e-07, cumulative = 0.000422723
GAMG:  Solving for p, Initial residual = 0.192495, Final residual = 5.71389e-07, No Iterations 14
time step continuity errors : sum local = 3.73034e-08, global = -7.76306e-12, cumulative = 0.000422723
PIMPLE: iteration 2
DILUPBiCG:  Solving for Ux, Initial residual = 0.0125473, Final residual = 8.90577e-07, No Iterations 5
DILUPBiCG:  Solving for Uy, Initial residual = 0.041138, Final residual = 6.86238e-07, No Iterations 6
DILUPBiCG:  Solving for Uz, Initial residual = 0.0370421, Final residual = 3.77572e-07, No Iterations 6
GAMG:  Solving for p, Initial residual = 0.282364, Final residual = 0.00161171, No Iterations 3
time step continuity errors : sum local = 0.000106087, global = -4.93367e-07, cumulative = 0.00042223
GAMG:  Solving for p, Initial residual = 0.188143, Final residual = 0.00105064, No Iterations 3
time step continuity errors : sum local = 6.87259e-05, global = -4.43145e-07, cumulative = 0.000421787
GAMG:  Solving for p, Initial residual = 0.190915, Final residual = 0.00105699, No Iterations 3
time step continuity errors : sum local = 6.92122e-05, global = -3.73468e-07, cumulative = 0.000421413
GAMG:  Solving for p, Initial residual = 0.190859, Final residual = 2.68256e-07, No Iterations 14
time step continuity errors : sum local = 1.75681e-08, global = -2.97365e-12, cumulative = 0.000421413
DILUPBiCGStab:  Solving for omega, Initial residual = 0.0190412, Final residual = 4.65297e-07, No Iterations 3
bounding omega, min: -0.388691 max: 53.0942 average: 2.66225
DILUPBiCGStab:  Solving for k, Initial residual = 0.0404632, Final residual = 1.90357e-07, No Iterations 3
bounding k, min: -0.00217106 max: 0.0912472 average: 0.00269434
PIMPLE: not converged within 2 iterations
ExecutionTime = 12 s  ClockTime = 12 s

Courant Number mean: 2.90499 max: 190.33
Time = 513


Solving3-D cloud kinematicCloud

Cloud: kinematicCloud injector: p11
    Added 500 new parcels

Cloud: kinematicCloud
    Current number of parcels       = 5500
    Current mass in system          = 0.000101255
    Linear momentum                 = (7.7778e-06 -2.91236e-07 -4.95697e-06)
   |Linear momentum|                = 9.22771e-06
    Linear kinetic energy           = 9.83157e-07
    Average particle per parcel     = 1
    Injector p1:
      - parcels added               = 500
      - mass introduced             = 8.67211e-05
    Injector p2:
      - parcels added               = 500
      - mass introduced             = 1.08402e-05
    Injector p3:
      - parcels added               = 500
      - mass introduced             = 2.34147e-06
    Injector p4:
      - parcels added               = 500
      - mass introduced             = 9.23406e-07
    Injector p5:
      - parcels added               = 500
      - mass introduced             = 2.92684e-07
    Injector p6:
      - parcels added               = 500
      - mass introduced             = 1.03286e-07
    Injector p7:
      - parcels added               = 500
      - mass introduced             = 2.40363e-08
    Injector p8:
      - parcels added               = 500
      - mass introduced             = 6.61032e-09
    Injector p9:
      - parcels added               = 500
      - mass introduced             = 1.35502e-09
    Injector p10:
      - parcels added               = 500
      - mass introduced             = 4.89085e-10
    Injector p11:
      - parcels added               = 500
      - mass introduced             = 1.81868e-10
    Injector p12:
      - parcels added               = 0
      - mass introduced             = 0
    Injector p13:
      - parcels added               = 0
      - mass introduced             = 0
    Injector p14:
      - parcels added               = 0
      - mass introduced             = 0
    Surface film:
      - parcels absorbed            = 0
      - mass absorbed               = 0
      - parcels ejected             = 0
    Parcel fate: system (number, mass)
      - escape                      = 0, 0
    Parcel fate: patch free_surface (number, mass)
      - escape                      = 0, 0
      - stick                       = 0, 0
    Parcel fate: patch walls (number, mass)
      - escape                      = 0, 0
      - stick                       = 0, 0
    Parcel fate: patch inlet (number, mass)
      - escape                      = 0, 0
      - stick                       = 0, 0
    Parcel fate: patch outlet (number, mass)
      - escape                      = 0, 0
      - stick                       = 0, 0

PIMPLE: iteration 1
DILUPBiCGStab:  Solving for Ux, Initial residual = 0.0146803, Final residual = 8.0068e-05, No Iterations 1
DILUPBiCGStab:  Solving for Uy, Initial residual = 0.0489607, Final residual = 0.000303742, No Iterations 1
DILUPBiCGStab:  Solving for Uz, Initial residual = 0.0445023, Final residual = 0.000221499, No Iterations 1
GAMG:  Solving for p, Initial residual = 0.282748, Final residual = 0.00159695, No Iterations 3
time step continuity errors : sum local = 0.00010452, global = -2.97827e-07, cumulative = 0.000421115
GAMG:  Solving for p, Initial residual = 0.188598, Final residual = 0.00105057, No Iterations 3
time step continuity errors : sum local = 6.81501e-05, global = -2.27129e-07, cumulative = 0.000420888
GAMG:  Solving for p, Initial residual = 0.191316, Final residual = 0.00105554, No Iterations 3
time step continuity errors : sum local = 6.85539e-05, global = -1.65486e-07, cumulative = 0.000420723
GAMG:  Solving for p, Initial residual = 0.191281, Final residual = 4.55805e-07, No Iterations 12
time step continuity errors : sum local = 2.96079e-08, global = -7.53187e-12, cumulative = 0.000420723
PIMPLE: iteration 2
DILUPBiCG:  Solving for Ux, Initial residual = 0.0122209, Final residual = 5.83505e-07, No Iterations 6
DILUPBiCG:  Solving for Uy, Initial residual = 0.040812, Final residual = 9.1697e-07, No Iterations 6
DILUPBiCG:  Solving for Uz, Initial residual = 0.0362219, Final residual = 3.16256e-07, No Iterations 6
GAMG:  Solving for p, Initial residual = 0.280036, Final residual = 0.00159917, No Iterations 3
time step continuity errors : sum local = 0.000104917, global = -4.13959e-07, cumulative = 0.000420309
GAMG:  Solving for p, Initial residual = 0.186145, Final residual = 0.00104572, No Iterations 3
time step continuity errors : sum local = 6.81946e-05, global = -4.06092e-07, cumulative = 0.000419903
GAMG:  Solving for p, Initial residual = 0.18885, Final residual = 0.00105132, No Iterations 3
time step continuity errors : sum local = 6.86448e-05, global = -3.593e-07, cumulative = 0.000419543
GAMG:  Solving for p, Initial residual = 0.188807, Final residual = 2.44142e-07, No Iterations 12
time step continuity errors : sum local = 1.5944e-08, global = -3.34935e-11, cumulative = 0.000419543
DILUPBiCGStab:  Solving for omega, Initial residual = 0.0188416, Final residual = 3.61334e-07, No Iterations 3
bounding omega, min: -0.0863657 max: 50.7634 average: 2.64942
DILUPBiCGStab:  Solving for k, Initial residual = 0.0398405, Final residual = 9.90469e-07, No Iterations 3
bounding k, min: -0.00563418 max: 0.0799849 average: 0.00265885
PIMPLE: not converged within 2 iterations
ExecutionTime = 13.42 s  ClockTime = 13 s

Courant Number mean: 2.90426 max: 190.792
Time = 514


Solving3-D cloud kinematicCloud

Cloud: kinematicCloud injector: p12
    Added 500 new parcels

Cloud: kinematicCloud
    Current number of parcels       = 6000
    Current mass in system          = 0.000101255
    Linear momentum                 = (7.54904e-06 -1.69725e-07 -4.89784e-06)
   |Linear momentum|                = 9.00032e-06
    Linear kinetic energy           = 9.54889e-07
    Average particle per parcel     = 1
    Injector p1:
      - parcels added               = 500
      - mass introduced             = 8.67211e-05
    Injector p2:
      - parcels added               = 500
      - mass introduced             = 1.08402e-05
    Injector p3:
      - parcels added               = 500
      - mass introduced             = 2.34147e-06
    Injector p4:
      - parcels added               = 500
      - mass introduced             = 9.23406e-07
    Injector p5:
      - parcels added               = 500
      - mass introduced             = 2.92684e-07
    Injector p6:
      - parcels added               = 500
      - mass introduced             = 1.03286e-07
    Injector p7:
      - parcels added               = 500
      - mass introduced             = 2.40363e-08
    Injector p8:
      - parcels added               = 500
      - mass introduced             = 6.61032e-09
    Injector p9:
      - parcels added               = 500
      - mass introduced             = 1.35502e-09
    Injector p10:
      - parcels added               = 500
      - mass introduced             = 4.89085e-10
    Injector p11:
      - parcels added               = 500
      - mass introduced             = 1.81868e-10
    Injector p12:
      - parcels added               = 500
      - mass introduced             = 5.51595e-11
    Injector p13:
      - parcels added               = 0
      - mass introduced             = 0
    Injector p14:
      - parcels added               = 0
      - mass introduced             = 0
    Surface film:
      - parcels absorbed            = 0
      - mass absorbed               = 0
      - parcels ejected             = 0
    Parcel fate: system (number, mass)
      - escape                      = 0, 0
    Parcel fate: patch free_surface (number, mass)
      - escape                      = 0, 0
      - stick                       = 0, 0
    Parcel fate: patch walls (number, mass)
      - escape                      = 0, 0
      - stick                       = 0, 0
    Parcel fate: patch inlet (number, mass)
      - escape                      = 0, 0
      - stick                       = 0, 0
    Parcel fate: patch outlet (number, mass)
      - escape                      = 0, 0
      - stick                       = 0, 0

PIMPLE: iteration 1
DILUPBiCGStab:  Solving for Ux, Initial residual = 0.0143553, Final residual = 8.19656e-05, No Iterations 1
DILUPBiCGStab:  Solving for Uy, Initial residual = 0.0487082, Final residual = 0.000331198, No Iterations 1
DILUPBiCGStab:  Solving for Uz, Initial residual = 0.043749, Final residual = 0.000214747, No Iterations 1
GAMG:  Solving for p, Initial residual = 0.281078, Final residual = 0.00156385, No Iterations 3
time step continuity errors : sum local = 0.000102118, global = -1.58703e-07, cumulative = 0.000419385
GAMG:  Solving for p, Initial residual = 0.186868, Final residual = 0.00102395, No Iterations 3
time step continuity errors : sum local = 6.63578e-05, global = -1.89314e-07, cumulative = 0.000419195
GAMG:  Solving for p, Initial residual = 0.189523, Final residual = 0.00102825, No Iterations 3
time step continuity errors : sum local = 6.67328e-05, global = -1.28171e-07, cumulative = 0.000419067
GAMG:  Solving for p, Initial residual = 0.18947, Final residual = 5.46224e-07, No Iterations 12
time step continuity errors : sum local = 3.54593e-08, global = -1.27677e-12, cumulative = 0.000419067
PIMPLE: iteration 2
DILUPBiCG:  Solving for Ux, Initial residual = 0.0119198, Final residual = 5.98857e-07, No Iterations 5
DILUPBiCG:  Solving for Uy, Initial residual = 0.0403736, Final residual = 9.58407e-07, No Iterations 6
DILUPBiCG:  Solving for Uz, Initial residual = 0.035437, Final residual = 2.971e-07, No Iterations 6
GAMG:  Solving for p, Initial residual = 0.277051, Final residual = 0.00155546, No Iterations 3
time step continuity errors : sum local = 0.000101991, global = -4.32865e-07, cumulative = 0.000418634
GAMG:  Solving for p, Initial residual = 0.183557, Final residual = 0.00101038, No Iterations 3
time step continuity errors : sum local = 6.59455e-05, global = -4.0193e-07, cumulative = 0.000418232
GAMG:  Solving for p, Initial residual = 0.186201, Final residual = 0.00101582, No Iterations 3
time step continuity errors : sum local = 6.63932e-05, global = -3.5476e-07, cumulative = 0.000417878
GAMG:  Solving for p, Initial residual = 0.186145, Final residual = 6.86567e-07, No Iterations 12
time step continuity errors : sum local = 4.48857e-08, global = 2.87682e-11, cumulative = 0.000417878
DILUPBiCGStab:  Solving for omega, Initial residual = 0.0185909, Final residual = 3.31853e-07, No Iterations 3
bounding omega, min: -0.329337 max: 48.2161 average: 2.63861
DILUPBiCGStab:  Solving for k, Initial residual = 0.039266, Final residual = 9.43839e-07, No Iterations 3
bounding k, min: -0.00275851 max: 0.0689723 average: 0.00262603
PIMPLE: not converged within 2 iterations
ExecutionTime = 14.87 s  ClockTime = 15 s

Courant Number mean: 2.90252 max: 191.183
Time = 515


Solving3-D cloud kinematicCloud

Cloud: kinematicCloud injector: p13
    Added 500 new parcels

Cloud: kinematicCloud
    Current number of parcels       = 6500
    Current mass in system          = 0.000101255
    Linear momentum                 = (7.00116e-06 -7.79817e-09 -4.67236e-06)
   |Linear momentum|                = 8.41708e-06
    Linear kinetic energy           = 8.54895e-07
    Average particle per parcel     = 1
    Injector p1:
      - parcels added               = 500
      - mass introduced             = 8.67211e-05
    Injector p2:
      - parcels added               = 500
      - mass introduced             = 1.08402e-05
    Injector p3:
      - parcels added               = 500
      - mass introduced             = 2.34147e-06
    Injector p4:
      - parcels added               = 500
      - mass introduced             = 9.23406e-07
    Injector p5:
      - parcels added               = 500
      - mass introduced             = 2.92684e-07
    Injector p6:
      - parcels added               = 500
      - mass introduced             = 1.03286e-07
    Injector p7:
      - parcels added               = 500
      - mass introduced             = 2.40363e-08
    Injector p8:
      - parcels added               = 500
      - mass introduced             = 6.61032e-09
    Injector p9:
      - parcels added               = 500
      - mass introduced             = 1.35502e-09
    Injector p10:
      - parcels added               = 500
      - mass introduced             = 4.89085e-10
    Injector p11:
      - parcels added               = 500
      - mass introduced             = 1.81868e-10
    Injector p12:
      - parcels added               = 500
      - mass introduced             = 5.51595e-11
    Injector p13:
      - parcels added               = 500
      - mass introduced             = 2.49321e-11
    Injector p14:
      - parcels added               = 0
      - mass introduced             = 0
    Surface film:
      - parcels absorbed            = 0
      - mass absorbed               = 0
      - parcels ejected             = 0
    Parcel fate: system (number, mass)
      - escape                      = 0, 0
    Parcel fate: patch free_surface (number, mass)
      - escape                      = 0, 0
      - stick                       = 0, 0
    Parcel fate: patch walls (number, mass)
      - escape                      = 0, 0
      - stick                       = 0, 0
    Parcel fate: patch inlet (number, mass)
      - escape                      = 0, 0
      - stick                       = 0, 0
    Parcel fate: patch outlet (number, mass)
      - escape                      = 0, 0
      - stick                       = 0, 0

PIMPLE: iteration 1
DILUPBiCGStab:  Solving for Ux, Initial residual = 0.0140329, Final residual = 8.41275e-05, No Iterations 1
DILUPBiCGStab:  Solving for Uy, Initial residual = 0.0484065, Final residual = 0.000335704, No Iterations 1
DILUPBiCGStab:  Solving for Uz, Initial residual = 0.0430608, Final residual = 0.000209315, No Iterations 1
GAMG:  Solving for p, Initial residual = 0.275676, Final residual = 0.0015521, No Iterations 3
time step continuity errors : sum local = 0.000101332, global = -2.42404e-07, cumulative = 0.000417635
GAMG:  Solving for p, Initial residual = 0.182728, Final residual = 0.00101307, No Iterations 3
time step continuity errors : sum local = 6.56951e-05, global = -2.0653e-07, cumulative = 0.000417429
GAMG:  Solving for p, Initial residual = 0.185276, Final residual = 0.00101878, No Iterations 3
time step continuity errors : sum local = 6.61583e-05, global = -1.3892e-07, cumulative = 0.00041729
GAMG:  Solving for p, Initial residual = 0.185239, Final residual = 8.2973e-07, No Iterations 12
time step continuity errors : sum local = 5.38992e-08, global = 4.72719e-11, cumulative = 0.00041729
PIMPLE: iteration 2
DILUPBiCG:  Solving for Ux, Initial residual = 0.0116108, Final residual = 4.57985e-08, No Iterations 7
DILUPBiCG:  Solving for Uy, Initial residual = 0.0398911, Final residual = 8.00211e-07, No Iterations 6
DILUPBiCG:  Solving for Uz, Initial residual = 0.0347505, Final residual = 3.12355e-07, No Iterations 6
GAMG:  Solving for p, Initial residual = 0.270974, Final residual = 0.00154541, No Iterations 3
time step continuity errors : sum local = 0.000101212, global = -4.98585e-07, cumulative = 0.000416791
GAMG:  Solving for p, Initial residual = 0.179123, Final residual = 0.00100118, No Iterations 3
time step continuity errors : sum local = 6.52462e-05, global = -4.63126e-07, cumulative = 0.000416328
GAMG:  Solving for p, Initial residual = 0.181776, Final residual = 0.00100834, No Iterations 3
time step continuity errors : sum local = 6.57961e-05, global = -4.09532e-07, cumulative = 0.000415919
GAMG:  Solving for p, Initial residual = 0.18173, Final residual = 8.65524e-07, No Iterations 12
time step continuity errors : sum local = 5.64932e-08, global = -3.33583e-11, cumulative = 0.000415919
DILUPBiCGStab:  Solving for omega, Initial residual = 0.018396, Final residual = 3.77173e-07, No Iterations 3
bounding omega, min: -0.0454604 max: 45.4563 average: 2.62909
DILUPBiCGStab:  Solving for k, Initial residual = 0.0387035, Final residual = 9.15438e-07, No Iterations 3
bounding k, min: -0.000931926 max: 0.0604357 average: 0.00259555
PIMPLE: not converged within 2 iterations
ExecutionTime = 16.36 s  ClockTime = 16 s

Courant Number mean: 2.89996 max: 191.638
Time = 516


Solving3-D cloud kinematicCloud

Cloud: kinematicCloud injector: p14
    Added 500 new parcels

Cloud: kinematicCloud
    Current number of parcels       = 7000
    Current mass in system          = 0.000101255
    Linear momentum                 = (6.71448e-06 1.82584e-07 -5.04194e-06)
   |Linear momentum|                = 8.39873e-06
    Linear kinetic energy           = 8.35986e-07
    Average particle per parcel     = 1
    Injector p1:
      - parcels added               = 500
      - mass introduced             = 8.67211e-05
    Injector p2:
      - parcels added               = 500
      - mass introduced             = 1.08402e-05
    Injector p3:
      - parcels added               = 500
      - mass introduced             = 2.34147e-06
    Injector p4:
      - parcels added               = 500
      - mass introduced             = 9.23406e-07
    Injector p5:
      - parcels added               = 500
      - mass introduced             = 2.92684e-07
    Injector p6:
      - parcels added               = 500
      - mass introduced             = 1.03286e-07
    Injector p7:
      - parcels added               = 500
      - mass introduced             = 2.40363e-08
    Injector p8:
      - parcels added               = 500
      - mass introduced             = 6.61032e-09
    Injector p9:
      - parcels added               = 500
      - mass introduced             = 1.35502e-09
    Injector p10:
      - parcels added               = 500
      - mass introduced             = 4.89085e-10
    Injector p11:
      - parcels added               = 500
      - mass introduced             = 1.81868e-10
    Injector p12:
      - parcels added               = 500
      - mass introduced             = 5.51595e-11
    Injector p13:
      - parcels added               = 500
      - mass introduced             = 2.49321e-11
    Injector p14:
      - parcels added               = 500
      - mass introduced             = 1.52421e-12
    Surface film:
      - parcels absorbed            = 0
      - mass absorbed               = 0
      - parcels ejected             = 0
    Parcel fate: system (number, mass)
      - escape                      = 0, 0
    Parcel fate: patch free_surface (number, mass)
      - escape                      = 0, 0
      - stick                       = 0, 0
    Parcel fate: patch walls (number, mass)
      - escape                      = 0, 0
      - stick                       = 0, 0
    Parcel fate: patch inlet (number, mass)
      - escape                      = 0, 0
      - stick                       = 0, 0
    Parcel fate: patch outlet (number, mass)
      - escape                      = 0, 0
      - stick                       = 0, 0

PIMPLE: iteration 1
DILUPBiCGStab:  Solving for Ux, Initial residual = 0.0137339, Final residual = 8.33442e-05, No Iterations 1
DILUPBiCGStab:  Solving for Uy, Initial residual = 0.0480766, Final residual = 0.000325748, No Iterations 1
DILUPBiCGStab:  Solving for Uz, Initial residual = 0.0424161, Final residual = 0.000205547, No Iterations 1
GAMG:  Solving for p, Initial residual = 0.270579, Final residual = 0.00159838, No Iterations 3
time step continuity errors : sum local = 0.000104105, global = -3.00725e-07, cumulative = 0.000415618
GAMG:  Solving for p, Initial residual = 0.179243, Final residual = 0.00104721, No Iterations 3
time step continuity errors : sum local = 6.76484e-05, global = -2.47406e-07, cumulative = 0.00041537
GAMG:  Solving for p, Initial residual = 0.181826, Final residual = 0.00105303, No Iterations 3
time step continuity errors : sum local = 6.81097e-05, global = -1.85986e-07, cumulative = 0.000415184
GAMG:  Solving for p, Initial residual = 0.181793, Final residual = 6.59634e-07, No Iterations 11
time step continuity errors : sum local = 4.26787e-08, global = -2.04289e-11, cumulative = 0.000415184
PIMPLE: iteration 2
DILUPBiCG:  Solving for Ux, Initial residual = 0.0113413, Final residual = 2.86029e-08, No Iterations 7
DILUPBiCG:  Solving for Uy, Initial residual = 0.0394657, Final residual = 6.9924e-07, No Iterations 6
DILUPBiCG:  Solving for Uz, Initial residual = 0.0341266, Final residual = 3.8868e-07, No Iterations 6
GAMG:  Solving for p, Initial residual = 0.268304, Final residual = 0.00157542, No Iterations 3
time step continuity errors : sum local = 0.000102746, global = -5.27267e-07, cumulative = 0.000414657
GAMG:  Solving for p, Initial residual = 0.177222, Final residual = 0.00102283, No Iterations 3
time step continuity errors : sum local = 6.63348e-05, global = -4.90574e-07, cumulative = 0.000414167
GAMG:  Solving for p, Initial residual = 0.179834, Final residual = 0.00103094, No Iterations 3
time step continuity errors : sum local = 6.69389e-05, global = -4.34899e-07, cumulative = 0.000413732
GAMG:  Solving for p, Initial residual = 0.179802, Final residual = 5.10669e-07, No Iterations 12
time step continuity errors : sum local = 3.31676e-08, global = -1.23293e-10, cumulative = 0.000413732
[...]
      - mass introduced             = 8.67211e-05
    Injector p2:
      - parcels added               = 500
      - mass introduced             = 1.08402e-05
    Injector p3:
      - parcels added               = 500
      - mass introduced             = 2.34147e-06
    Injector p4:
      - parcels added               = 500
      - mass introduced             = 9.23406e-07
    Injector p5:
      - parcels added               = 500
      - mass introduced             = 2.92684e-07
    Injector p6:
      - parcels added               = 500
      - mass introduced             = 1.03286e-07
    Injector p7:
      - parcels added               = 500
      - mass introduced             = 2.40363e-08
    Injector p8:
      - parcels added               = 500
      - mass introduced             = 6.61032e-09
    Injector p9:
      - parcels added               = 500
      - mass introduced             = 1.35502e-09
    Injector p10:
      - parcels added               = 500
      - mass introduced             = 4.89085e-10
    Injector p11:
      - parcels added               = 500
      - mass introduced             = 1.81868e-10
    Injector p12:
      - parcels added               = 500
      - mass introduced             = 5.51595e-11
    Injector p13:
      - parcels added               = 500
      - mass introduced             = 2.49321e-11
    Injector p14:
      - parcels added               = 500
      - mass introduced             = 1.52421e-12
    Surface film:
      - parcels absorbed            = 0
      - mass absorbed               = 0
      - parcels ejected             = 0
    Parcel fate: system (number, mass)
      - escape                      = 2686, 1.92838e-07
    Parcel fate: patch free_surface (number, mass)
      - escape                      = 0, 0
      - stick                       = 0, 0
    Parcel fate: patch walls (number, mass)
      - escape                      = 0, 0
      - stick                       = 0, 0
    Parcel fate: patch inlet (number, mass)
      - escape                      = 0, 0
      - stick                       = 0, 0
    Parcel fate: patch outlet (number, mass)
      - escape                      = 2686, 1.92838e-07
      - stick                       = 0, 0

PIMPLE: iteration 1
DILUPBiCGStab:  Solving for Ux, Initial residual = 0.0354529, Final residual = 0.000134338, No Iterations 1
DILUPBiCGStab:  Solving for Uy, Initial residual = 0.079281, Final residual = 0.000221119, No Iterations 1
DILUPBiCGStab:  Solving for Uz, Initial residual = 0.0818828, Final residual = 0.000212045, No Iterations 1
GAMG:  Solving for p, Initial residual = 0.321143, Final residual = 0.00223429, No Iterations 3
time step continuity errors : sum local = 0.000283717, global = -4.96004e-08, cumulative = 0.000402441
GAMG:  Solving for p, Initial residual = 0.214999, Final residual = 0.00154446, No Iterations 3
time step continuity errors : sum local = 0.000203364, global = -1.74069e-07, cumulative = 0.000402267
GAMG:  Solving for p, Initial residual = 0.217019, Final residual = 0.00152898, No Iterations 3
time step continuity errors : sum local = 0.000202121, global = -1.66764e-07, cumulative = 0.0004021
GAMG:  Solving for p, Initial residual = 0.216291, Final residual = 6.46718e-07, No Iterations 14
time step continuity errors : sum local = 8.55359e-08, global = 1.34377e-12, cumulative = 0.0004021
PIMPLE: iteration 2
DILUPBiCG:  Solving for Ux, Initial residual = 0.0390873, Final residual = 6.35745e-07, No Iterations 5
DILUPBiCG:  Solving for Uy, Initial residual = 0.0745534, Final residual = 1.27273e-07, No Iterations 6
DILUPBiCG:  Solving for Uz, Initial residual = 0.0770608, Final residual = 1.29404e-07, No Iterations 6
GAMG:  Solving for p, Initial residual = 0.323312, Final residual = 0.00246234, No Iterations 3
time step continuity errors : sum local = 0.000334625, global = -1.1797e-07, cumulative = 0.000401982
GAMG:  Solving for p, Initial residual = 0.216999, Final residual = 0.00167813, No Iterations 3
time step continuity errors : sum local = 0.000237401, global = -2.79708e-07, cumulative = 0.000401702
GAMG:  Solving for p, Initial residual = 0.21869, Final residual = 0.00166449, No Iterations 3
time step continuity errors : sum local = 0.000236463, global = -2.55947e-07, cumulative = 0.000401446
GAMG:  Solving for p, Initial residual = 0.217908, Final residual = 3.36618e-07, No Iterations 14
time step continuity errors : sum local = 4.78494e-08, global = -3.86427e-12, cumulative = 0.000401446
DILUPBiCGStab:  Solving for omega, Initial residual = 0.0912554, Final residual = 3.98246e-07, No Iterations 3
bounding omega, min: -41.8146 max: 1085.33 average: 2.91163
DILUPBiCGStab:  Solving for k, Initial residual = 0.226003, Final residual = 1.62997e-07, No Iterations 3
bounding k, min: -0.623462 max: 13.6473 average: 0.00434121
PIMPLE: not converged within 2 iterations
ExecutionTime = 207.43 s  ClockTime = 208 s

Courant Number mean: 2.62465 max: 4897.68
Time = 831


Solving3-D cloud kinematicCloud
Cloud: kinematicCloud
    Current number of parcels       = 4313
    Current mass in system          = 0.000101062
    Linear momentum                 = (-4.34847e-07 -4.06277e-08 -5.14082e-06)
   |Linear momentum|                = 5.15934e-06
    Linear kinetic energy           = 1.81463e-07
    Average particle per parcel     = 1
    Injector p1:
      - parcels added               = 500
      - mass introduced             = 8.67211e-05
    Injector p2:
      - parcels added               = 500
      - mass introduced             = 1.08402e-05
    Injector p3:
      - parcels added               = 500
      - mass introduced             = 2.34147e-06
    Injector p4:
      - parcels added               = 500
      - mass introduced             = 9.23406e-07
    Injector p5:
      - parcels added               = 500
      - mass introduced             = 2.92684e-07
    Injector p6:
      - parcels added               = 500
      - mass introduced             = 1.03286e-07
    Injector p7:
      - parcels added               = 500
      - mass introduced             = 2.40363e-08
    Injector p8:
      - parcels added               = 500
      - mass introduced             = 6.61032e-09
    Injector p9:
      - parcels added               = 500
      - mass introduced             = 1.35502e-09
    Injector p10:
      - parcels added               = 500
      - mass introduced             = 4.89085e-10
    Injector p11:
      - parcels added               = 500
      - mass introduced             = 1.81868e-10
    Injector p12:
      - parcels added               = 500
      - mass introduced             = 5.51595e-11
    Injector p13:
      - parcels added               = 500
      - mass introduced             = 2.49321e-11
    Injector p14:
      - parcels added               = 500
      - mass introduced             = 1.52421e-12
    Surface film:
      - parcels absorbed            = 0
      - mass absorbed               = 0
      - parcels ejected             = 0
    Parcel fate: system (number, mass)
      - escape                      = 2687, 1.92839e-07
    Parcel fate: patch free_surface (number, mass)
      - escape                      = 0, 0
      - stick                       = 0, 0
    Parcel fate: patch walls (number, mass)
      - escape                      = 0, 0
      - stick                       = 0, 0
    Parcel fate: patch inlet (number, mass)
      - escape                      = 0, 0
      - stick                       = 0, 0
    Parcel fate: patch outlet (number, mass)
      - escape                      = 2687, 1.92839e-07
      - stick                       = 0, 0

PIMPLE: iteration 1
DILUPBiCGStab:  Solving for Ux, Initial residual = 0.0450805, Final residual = 0.00016144, No Iterations 1
DILUPBiCGStab:  Solving for Uy, Initial residual = 0.0774457, Final residual = 0.000215801, No Iterations 1
DILUPBiCGStab:  Solving for Uz, Initial residual = 0.0785758, Final residual = 0.000224671, No Iterations 1
GAMG:  Solving for p, Initial residual = 0.332547, Final residual = 0.00268227, No Iterations 3
time step continuity errors : sum local = 0.000390896, global = -1.98178e-07, cumulative = 0.000401248
GAMG:  Solving for p, Initial residual = 0.222555, Final residual = 0.00180855, No Iterations 3
time step continuity errors : sum local = 0.000275569, global = -3.64567e-07, cumulative = 0.000400883
GAMG:  Solving for p, Initial residual = 0.224313, Final residual = 0.00179594, No Iterations 3
time step continuity errors : sum local = 0.000274816, global = -3.5419e-07, cumulative = 0.000400529
GAMG:  Solving for p, Initial residual = 0.223485, Final residual = 3.25732e-07, No Iterations 14
time step continuity errors : sum local = 4.98768e-08, global = 2.43943e-12, cumulative = 0.000400529
PIMPLE: iteration 2
DILUPBiCG:  Solving for Ux, Initial residual = 0.0497675, Final residual = 6.38189e-07, No Iterations 5
DILUPBiCG:  Solving for Uy, Initial residual = 0.0748224, Final residual = 1.21825e-07, No Iterations 6
DILUPBiCG:  Solving for Uz, Initial residual = 0.0767018, Final residual = 6.53336e-08, No Iterations 6
GAMG:  Solving for p, Initial residual = 0.33678, Final residual = 0.00277716, No Iterations 3
time step continuity errors : sum local = 0.000442799, global = -1.94682e-07, cumulative = 0.000400335
GAMG:  Solving for p, Initial residual = 0.222816, Final residual = 0.00182242, No Iterations 3
time step continuity errors : sum local = 0.000307045, global = -3.72269e-07, cumulative = 0.000399962
GAMG:  Solving for p, Initial residual = 0.224817, Final residual = 0.00182221, No Iterations 3
time step continuity errors : sum local = 0.000308296, global = -3.57551e-07, cumulative = 0.000399605
GAMG:  Solving for p, Initial residual = 0.223983, Final residual = 3.62348e-07, No Iterations 14
time step continuity errors : sum local = 6.13574e-08, global = -4.06836e-12, cumulative = 0.000399605
DILUPBiCGStab:  Solving for omega, Initial residual = 0.108104, Final residual = 3.3425e-07, No Iterations 3
bounding omega, min: -85.2575 max: 1561.71 average: 3.09883
DILUPBiCGStab:  Solving for k, Initial residual = 0.243701, Final residual = 4.19743e-07, No Iterations 3
bounding k, min: -0.934748 max: 20.2555 average: 0.0059197
PIMPLE: not converged within 2 iterations
ExecutionTime = 208.08 s  ClockTime = 209 s

Courant Number mean: 2.67504 max: 6515.22
Time = 832


Solving3-D cloud kinematicCloud
Cloud: kinematicCloud
    Current number of parcels       = 4312
    Current mass in system          = 0.000101062
    Linear momentum                 = (-4.69506e-07 -2.77464e-08 -5.29679e-06)
   |Linear momentum|                = 5.31763e-06
    Linear kinetic energy           = 1.85239e-07
    Average particle per parcel     = 1
    Injector p1:
      - parcels added               = 500
      - mass introduced             = 8.67211e-05
    Injector p2:
      - parcels added               = 500
      - mass introduced             = 1.08402e-05
    Injector p3:
      - parcels added               = 500
      - mass introduced             = 2.34147e-06
    Injector p4:
      - parcels added               = 500
      - mass introduced             = 9.23406e-07
    Injector p5:
      - parcels added               = 500
      - mass introduced             = 2.92684e-07
    Injector p6:
      - parcels added               = 500
      - mass introduced             = 1.03286e-07
    Injector p7:
      - parcels added               = 500
      - mass introduced             = 2.40363e-08
    Injector p8:
      - parcels added               = 500
      - mass introduced             = 6.61032e-09
    Injector p9:
      - parcels added               = 500
      - mass introduced             = 1.35502e-09
    Injector p10:
      - parcels added               = 500
      - mass introduced             = 4.89085e-10
    Injector p11:
      - parcels added               = 500
      - mass introduced             = 1.81868e-10
    Injector p12:
      - parcels added               = 500
      - mass introduced             = 5.51595e-11
    Injector p13:
      - parcels added               = 500
      - mass introduced             = 2.49321e-11
    Injector p14:
      - parcels added               = 500
      - mass introduced             = 1.52421e-12
    Surface film:
      - parcels absorbed            = 0
      - mass absorbed               = 0
      - parcels ejected             = 0
    Parcel fate: system (number, mass)
      - escape                      = 2688, 1.92852e-07
    Parcel fate: patch free_surface (number, mass)
      - escape                      = 0, 0
      - stick                       = 0, 0
    Parcel fate: patch walls (number, mass)
      - escape                      = 0, 0
      - stick                       = 0, 0
    Parcel fate: patch inlet (number, mass)
      - escape                      = 0, 0
      - stick                       = 0, 0
    Parcel fate: patch outlet (number, mass)
      - escape                      = 2688, 1.92852e-07
      - stick                       = 0, 0

PIMPLE: iteration 1
DILUPBiCGStab:  Solving for Ux, Initial residual = 0.0559239, Final residual = 0.000190717, No Iterations 1
DILUPBiCGStab:  Solving for Uy, Initial residual = 0.0778389, Final residual = 0.00022157, No Iterations 1
DILUPBiCGStab:  Solving for Uz, Initial residual = 0.079736, Final residual = 0.000217092, No Iterations 1
GAMG:  Solving for p, Initial residual = 0.34159, Final residual = 0.00303245, No Iterations 3
time step continuity errors : sum local = 0.000529988, global = -2.32175e-07, cumulative = 0.000399373
GAMG:  Solving for p, Initial residual = 0.223646, Final residual = 0.00197333, No Iterations 3
time step continuity errors : sum local = 0.00036789, global = -6.81752e-07, cumulative = 0.000398691
GAMG:  Solving for p, Initial residual = 0.225986, Final residual = 0.00196428, No Iterations 3
time step continuity errors : sum local = 0.000367736, global = -4.53123e-07, cumulative = 0.000398238
GAMG:  Solving for p, Initial residual = 0.225012, Final residual = 3.40731e-07, No Iterations 14
time step continuity errors : sum local = 6.38492e-08, global = -3.49237e-12, cumulative = 0.000398238
PIMPLE: iteration 2
DILUPBiCG:  Solving for Ux, Initial residual = 0.0624185, Final residual = 5.68939e-07, No Iterations 5
DILUPBiCG:  Solving for Uy, Initial residual = 0.0770876, Final residual = 9.80001e-08, No Iterations 6
DILUPBiCG:  Solving for Uz, Initial residual = 0.0809715, Final residual = 6.52524e-07, No Iterations 6
GAMG:  Solving for p, Initial residual = 0.340461, Final residual = 0.00321427, No Iterations 3
time step continuity errors : sum local = 0.000627594, global = -3.1119e-07, cumulative = 0.000397927
GAMG:  Solving for p, Initial residual = 0.222242, Final residual = 0.00204941, No Iterations 3
time step continuity errors : sum local = 0.000429833, global = -5.27682e-07, cumulative = 0.000397399
GAMG:  Solving for p, Initial residual = 0.224447, Final residual = 0.00205811, No Iterations 3
time step continuity errors : sum local = 0.000433664, global = -5.36553e-07, cumulative = 0.000396862
GAMG:  Solving for p, Initial residual = 0.22334, Final residual = 9.12203e-07, No Iterations 13
time step continuity errors : sum local = 1.9241e-07, global = -5.45859e-11, cumulative = 0.000396862
DILUPBiCGStab:  Solving for omega, Initial residual = 0.124519, Final residual = 2.99799e-07, No Iterations 3
bounding omega, min: -9.53836 max: 2120.54 average: 3.40046
DILUPBiCGStab:  Solving for k, Initial residual = 0.260795, Final residual = 5.28995e-07, No Iterations 3
bounding k, min: -2.84359 max: 29.7743 average: 0.00887641
PIMPLE: not converged within 2 iterations
ExecutionTime = 208.69 s  ClockTime = 209 s

Courant Number mean: 2.75373 max: 8816.88
Time = 833


Solving3-D cloud kinematicCloud
Cloud: kinematicCloud
    Current number of parcels       = 4307
    Current mass in system          = 0.000101062
    Linear momentum                 = (-4.49066e-07 -9.22516e-09 -5.2488e-06)
   |Linear momentum|                = 5.26798e-06
    Linear kinetic energy           = 1.90067e-07
    Average particle per parcel     = 1
    Injector p1:
      - parcels added               = 500
      - mass introduced             = 8.67211e-05
    Injector p2:
      - parcels added               = 500
      - mass introduced             = 1.08402e-05
    Injector p3:
      - parcels added               = 500
      - mass introduced             = 2.34147e-06
    Injector p4:
      - parcels added               = 500
      - mass introduced             = 9.23406e-07
    Injector p5:
      - parcels added               = 500
      - mass introduced             = 2.92684e-07
    Injector p6:
      - parcels added               = 500
      - mass introduced             = 1.03286e-07
    Injector p7:
      - parcels added               = 500
      - mass introduced             = 2.40363e-08
    Injector p8:
      - parcels added               = 500
      - mass introduced             = 6.61032e-09
    Injector p9:
      - parcels added               = 500
      - mass introduced             = 1.35502e-09
    Injector p10:
      - parcels added               = 500
      - mass introduced             = 4.89085e-10
    Injector p11:
      - parcels added               = 500
      - mass introduced             = 1.81868e-10
    Injector p12:
      - parcels added               = 500
      - mass introduced             = 5.51595e-11
    Injector p13:
      - parcels added               = 500
      - mass introduced             = 2.49321e-11
    Injector p14:
      - parcels added               = 500
      - mass introduced             = 1.52421e-12
    Surface film:
      - parcels absorbed            = 0
      - mass absorbed               = 0
      - parcels ejected             = 0
    Parcel fate: system (number, mass)
      - escape                      = 2693, 1.92882e-07
    Parcel fate: patch free_surface (number, mass)
      - escape                      = 0, 0
      - stick                       = 0, 0
    Parcel fate: patch walls (number, mass)
      - escape                      = 0, 0
      - stick                       = 0, 0
    Parcel fate: patch inlet (number, mass)
      - escape                      = 0, 0
      - stick                       = 0, 0
    Parcel fate: patch outlet (number, mass)
      - escape                      = 2693, 1.92882e-07
      - stick                       = 0, 0

PIMPLE: iteration 1
DILUPBiCGStab:  Solving for Ux, Initial residual = 0.0688653, Final residual = 0.000218996, No Iterations 1
DILUPBiCGStab:  Solving for Uy, Initial residual = 0.0790904, Final residual = 0.000216222, No Iterations 1
DILUPBiCGStab:  Solving for Uz, Initial residual = 0.0843373, Final residual = 0.000202398, No Iterations 1
GAMG:  Solving for p, Initial residual = 0.349783, Final residual = 0.00131411, No Iterations 4
time step continuity errors : sum local = 0.000286719, global = -3.46212e-07, cumulative = 0.000396516
GAMG:  Solving for p, Initial residual = 0.226182, Final residual = 0.000825643, No Iterations 4
time step continuity errors : sum local = 0.000195033, global = -7.13166e-07, cumulative = 0.000395803
GAMG:  Solving for p, Initial residual = 0.228609, Final residual = 0.000841, No Iterations 4
time step continuity errors : sum local = 0.000199609, global = -5.92542e-07, cumulative = 0.00039521
GAMG:  Solving for p, Initial residual = 0.227407, Final residual = 3.30382e-07, No Iterations 14
time step continuity errors : sum local = 7.84968e-08, global = -1.58895e-11, cumulative = 0.00039521
PIMPLE: iteration 2
DILUPBiCG:  Solving for Ux, Initial residual = 0.0754986, Final residual = 9.44575e-07, No Iterations 4
DILUPBiCG:  Solving for Uy, Initial residual = 0.080935, Final residual = 2.48448e-07, No Iterations 6
DILUPBiCG:  Solving for Uz, Initial residual = 0.0862252, Final residual = 1.17299e-07, No Iterations 6
