/*---------------------------------------------------------------------------*\
| =========                 |                                                 |
| \\      /  F ield         | OpenFOAM: The Open Source CFD Toolbox           |
|  \\    /   O peration     | Version:  2312                                  |
|   \\  /    A nd           | Website:  www.openfoam.com                      |
|    \\/     M anipulation  |                                                 |
\*---------------------------------------------------------------------------*/
Build  : _e651d635-20240208 OPENFOAM=2312 patch=240220 version=2312
Arch   : "LSB;label=32;scalar=64"
Exec   : kinematicParcelFoam -parallel
Date   : Sep 16 2025
Time   : 09:54:53
Host   : work
PID    : 970515
I/O    : uncollated
Case   : /home/bm424/Projects/sandTrapShapeOpt/sandTrapCaseDir
nProcs : 10
Hosts  :
(
    (work 10)
)
Pstream initialized with:
    floatTransfer      : false
    nProcsSimpleSum    : 0
    nonBlockingExchange: 0 (tuning: 0)
    exchange algorithm : 0
    commsType          : nonBlocking
    polling iterations : 0
trapFpe: Floating point exception trapping enabled (FOAM_SIGFPE).
fileModificationChecking : Monitoring run-time modified files using timeStampMaster (fileModificationSkew 5, maxFileModificationPolls 20)
allowSystemOperations : Allowing user-supplied system call operations

// * * * * * * * * * * * * * * * * * * * * * * * * * * * * * * * * * * * * * //
Create time

Create mesh for time = 502


PIMPLE: max iterations = 2
    field "(p|U|k|omega)"	: relTol 0, tolerance 1e-05


Reading g
Reading field p


Reading field U

Reading/calculating face flux field phi

Selecting incompressible transport model Newtonian
Creating turbulence model

Selecting turbulence model type RAS
Selecting RAS turbulence model kOmegaSST
Selecting patchDistMethod meshWave
RAS
{
    RASModel        kOmegaSST;
    turbulence      on;
    printCoeffs     on;
    alphaK1         0.85;
    alphaK2         1;
    alphaOmega1     0.5;
    alphaOmega2     0.856;
    gamma1          0.555556;
    gamma2          0.44;
    beta1           0.075;
    beta2           0.0828;
    betaStar        0.09;
    a1              0.31;
    b1              1;
    c1              10;
    F3              false;
    decayControl    false;
    kInf            0;
    omegaInf        0;
}

No MRF models present

Constructing kinematicCloud kinematicCloud
Constructing particle forces
    Selecting particle force sphereDrag
    Selecting particle force gravity
    Selecting particle force SaffmanMeiLiftForce
Constructing cloud functions
    Selecting cloud function patchPost1 of type particlePostProcessing
Constructing particle injection models
Creating injector: p1
Selecting injection model manualInjection
    Constructing 3-D injection
Selecting distribution model fixedValue
Creating injector: p2
Selecting injection model manualInjection
    Constructing 3-D injection
Selecting distribution model fixedValue
Creating injector: p3
Selecting injection model manualInjection
    Constructing 3-D injection
Selecting distribution model fixedValue
Creating injector: p4
Selecting injection model manualInjection
    Constructing 3-D injection
Selecting distribution model fixedValue
Creating injector: p5
Selecting injection model manualInjection
    Constructing 3-D injection
Selecting distribution model fixedValue
Creating injector: p6
Selecting injection model manualInjection
    Constructing 3-D injection
Selecting distribution model fixedValue
Creating injector: p7
Selecting injection model manualInjection
    Constructing 3-D injection
Selecting distribution model fixedValue
Creating injector: p8
Selecting injection model manualInjection
    Constructing 3-D injection
Selecting distribution model fixedValue
Creating injector: p9
Selecting injection model manualInjection
    Constructing 3-D injection
Selecting distribution model fixedValue
Creating injector: p10
Selecting injection model manualInjection
    Constructing 3-D injection
Selecting distribution model fixedValue
Creating injector: p11
Selecting injection model manualInjection
    Constructing 3-D injection
Selecting distribution model fixedValue
Creating injector: p12
Selecting injection model manualInjection
    Constructing 3-D injection
Selecting distribution model fixedValue
Creating injector: p13
Selecting injection model manualInjection
    Constructing 3-D injection
Selecting distribution model fixedValue
Creating injector: p14
Selecting injection model manualInjection
    Constructing 3-D injection
Selecting distribution model fixedValue
Selecting dispersion model none
Selecting patch interaction model localInteraction
    Interaction fields will not be written
Selecting stochastic collision model none
Selecting surface film model none
Selecting packing model none
Selecting damping model none
Selecting isotropy model none
Selecting U integration scheme Euler

Constructing surface film model
Selecting surfaceFilmModel none
No finite volume options present
Courant Number mean: 2.7482 max: 273.423

Starting time loop

Courant Number mean: 2.7482 max: 273.423
Time = 503


Solving3-D cloud kinematicCloud

Cloud: kinematicCloud injector: p1
    Added 500 new parcels

Cloud: kinematicCloud
    Current number of parcels       = 500
    Current mass in system          = 8.67211e-05
    Linear momentum                 = (5.6921e-05 1.04215e-07 -5.67038e-06)
   |Linear momentum|                = 5.72029e-05
    Linear kinetic energy           = 2.58661e-05
    Average particle per parcel     = 1
    Injector p1:
      - parcels added               = 500
      - mass introduced             = 8.67211e-05
    Injector p2:
      - parcels added               = 0
      - mass introduced             = 0
    Injector p3:
      - parcels added               = 0
      - mass introduced             = 0
    Injector p4:
      - parcels added               = 0
      - mass introduced             = 0
    Injector p5:
      - parcels added               = 0
      - mass introduced             = 0
    Injector p6:
      - parcels added               = 0
      - mass introduced             = 0
    Injector p7:
      - parcels added               = 0
      - mass introduced             = 0
    Injector p8:
      - parcels added               = 0
      - mass introduced             = 0
    Injector p9:
      - parcels added               = 0
      - mass introduced             = 0
    Injector p10:
      - parcels added               = 0
      - mass introduced             = 0
    Injector p11:
      - parcels added               = 0
      - mass introduced             = 0
    Injector p12:
      - parcels added               = 0
      - mass introduced             = 0
    Injector p13:
      - parcels added               = 0
      - mass introduced             = 0
    Injector p14:
      - parcels added               = 0
      - mass introduced             = 0
    Surface film:
      - parcels absorbed            = 0
      - mass absorbed               = 0
      - parcels ejected             = 0
    Parcel fate: system (number, mass)
      - escape                      = 0, 0
    Parcel fate: patch free_surface (number, mass)
      - escape                      = 0, 0
      - stick                       = 0, 0
    Parcel fate: patch walls (number, mass)
      - escape                      = 0, 0
      - stick                       = 0, 0
    Parcel fate: patch inlet (number, mass)
      - escape                      = 0, 0
      - stick                       = 0, 0
    Parcel fate: patch outlet (number, mass)
      - escape                      = 0, 0
      - stick                       = 0, 0

PIMPLE: iteration 1
DILUPBiCGStab:  Solving for Ux, Initial residual = 0.0128088, Final residual = 5.16194e-05, No Iterations 1
DILUPBiCGStab:  Solving for Uy, Initial residual = 0.0656401, Final residual = 0.000202913, No Iterations 1
DILUPBiCGStab:  Solving for Uz, Initial residual = 0.060512, Final residual = 0.000216765, No Iterations 1
GAMG:  Solving for p, Initial residual = 0.249536, Final residual = 0.00219525, No Iterations 3
time step continuity errors : sum local = 0.000158704, global = 7.70373e-08, cumulative = -0.000681549
GAMG:  Solving for p, Initial residual = 0.171709, Final residual = 0.00145191, No Iterations 3
time step continuity errors : sum local = 0.000105417, global = 7.53849e-09, cumulative = -0.000681541
GAMG:  Solving for p, Initial residual = 0.173793, Final residual = 0.00144993, No Iterations 3
time step continuity errors : sum local = 0.000105471, global = 9.1988e-09, cumulative = -0.000681532
GAMG:  Solving for p, Initial residual = 0.173446, Final residual = 6.56915e-07, No Iterations 19
time step continuity errors : sum local = 4.78074e-08, global = -3.68191e-12, cumulative = -0.000681532
PIMPLE: iteration 2
DILUPBiCG:  Solving for Ux, Initial residual = 0.0110218, Final residual = 2.6506e-07, No Iterations 5
DILUPBiCG:  Solving for Uy, Initial residual = 0.0570989, Final residual = 1.35267e-07, No Iterations 6
DILUPBiCG:  Solving for Uz, Initial residual = 0.0524882, Final residual = 5.80792e-07, No Iterations 6
GAMG:  Solving for p, Initial residual = 0.248045, Final residual = 0.00232099, No Iterations 3
time step continuity errors : sum local = 0.000170406, global = -1.02564e-07, cumulative = -0.000681635
GAMG:  Solving for p, Initial residual = 0.171197, Final residual = 0.00155382, No Iterations 3
time step continuity errors : sum local = 0.000114718, global = -1.74628e-07, cumulative = -0.000681809
GAMG:  Solving for p, Initial residual = 0.173096, Final residual = 0.00154762, No Iterations 3
time step continuity errors : sum local = 0.000114484, global = -1.74217e-07, cumulative = -0.000681984
GAMG:  Solving for p, Initial residual = 0.172637, Final residual = 8.80466e-07, No Iterations 19
time step continuity errors : sum local = 6.51603e-08, global = -4.34071e-12, cumulative = -0.000681984
DILUPBiCGStab:  Solving for omega, Initial residual = 0.0171008, Final residual = 2.9374e-07, No Iterations 3
bounding omega, min: -3.70748 max: 210.504 average: 2.7677
DILUPBiCGStab:  Solving for k, Initial residual = 0.040319, Final residual = 8.77984e-07, No Iterations 3
bounding k, min: -0.0318089 max: 0.990443 average: 0.00136696
PIMPLE: not converged within 2 iterations
ExecutionTime = 1.24 s  ClockTime = 1 s

Courant Number mean: 2.74924 max: 324.777
Time = 504


Solving3-D cloud kinematicCloud

Cloud: kinematicCloud injector: p2
    Added 500 new parcels

Cloud: kinematicCloud
    Current number of parcels       = 1000
    Current mass in system          = 9.75613e-05
    Linear momentum                 = (5.42239e-05 -7.48509e-07 -5.54754e-06)
   |Linear momentum|                = 5.45121e-05
    Linear kinetic energy           = 2.36693e-05
    Average particle per parcel     = 1
    Injector p1:
      - parcels added               = 500
      - mass introduced             = 8.67211e-05
    Injector p2:
      - parcels added               = 500
      - mass introduced             = 1.08402e-05
    Injector p3:
      - parcels added               = 0
      - mass introduced             = 0
    Injector p4:
      - parcels added               = 0
      - mass introduced             = 0
    Injector p5:
      - parcels added               = 0
      - mass introduced             = 0
    Injector p6:
      - parcels added               = 0
      - mass introduced             = 0
    Injector p7:
      - parcels added               = 0
      - mass introduced             = 0
    Injector p8:
      - parcels added               = 0
      - mass introduced             = 0
    Injector p9:
      - parcels added               = 0
      - mass introduced             = 0
    Injector p10:
      - parcels added               = 0
      - mass introduced             = 0
    Injector p11:
      - parcels added               = 0
      - mass introduced             = 0
    Injector p12:
      - parcels added               = 0
      - mass introduced             = 0
    Injector p13:
      - parcels added               = 0
      - mass introduced             = 0
    Injector p14:
      - parcels added               = 0
      - mass introduced             = 0
    Surface film:
      - parcels absorbed            = 0
      - mass absorbed               = 0
      - parcels ejected             = 0
    Parcel fate: system (number, mass)
      - escape                      = 0, 0
    Parcel fate: patch free_surface (number, mass)
      - escape                      = 0, 0
      - stick                       = 0, 0
    Parcel fate: patch walls (number, mass)
      - escape                      = 0, 0
      - stick                       = 0, 0
    Parcel fate: patch inlet (number, mass)
      - escape                      = 0, 0
      - stick                       = 0, 0
    Parcel fate: patch outlet (number, mass)
      - escape                      = 0, 0
      - stick                       = 0, 0

PIMPLE: iteration 1
DILUPBiCGStab:  Solving for Ux, Initial residual = 0.0131928, Final residual = 5.99981e-05, No Iterations 1
DILUPBiCGStab:  Solving for Uy, Initial residual = 0.0657271, Final residual = 0.000216993, No Iterations 1
DILUPBiCGStab:  Solving for Uz, Initial residual = 0.0590331, Final residual = 0.000213427, No Iterations 1
GAMG:  Solving for p, Initial residual = 0.247898, Final residual = 0.00231283, No Iterations 3
time step continuity errors : sum local = 0.000171122, global = 9.26523e-08, cumulative = -0.000681891
GAMG:  Solving for p, Initial residual = 0.170965, Final residual = 0.00155952, No Iterations 3
time step continuity errors : sum local = 0.000115862, global = 3.3612e-08, cumulative = -0.000681857
GAMG:  Solving for p, Initial residual = 0.17306, Final residual = 0.00155209, No Iterations 3
time step continuity errors : sum local = 0.00011555, global = 3.40427e-08, cumulative = -0.000681823
GAMG:  Solving for p, Initial residual = 0.172554, Final residual = 4.40673e-07, No Iterations 21
time step continuity errors : sum local = 3.28219e-08, global = -7.76511e-13, cumulative = -0.000681823
PIMPLE: iteration 2
DILUPBiCG:  Solving for Ux, Initial residual = 0.0113895, Final residual = 2.96206e-07, No Iterations 5
DILUPBiCG:  Solving for Uy, Initial residual = 0.0563204, Final residual = 1.53137e-07, No Iterations 6
DILUPBiCG:  Solving for Uz, Initial residual = 0.0506105, Final residual = 1.93031e-07, No Iterations 6
GAMG:  Solving for p, Initial residual = 0.249046, Final residual = 0.00232192, No Iterations 3
time step continuity errors : sum local = 0.000175631, global = -1.55638e-07, cumulative = -0.000681979
GAMG:  Solving for p, Initial residual = 0.170422, Final residual = 0.00155112, No Iterations 3
time step continuity errors : sum local = 0.000118473, global = -2.73212e-07, cumulative = -0.000682252
GAMG:  Solving for p, Initial residual = 0.172643, Final residual = 0.00154091, No Iterations 3
time step continuity errors : sum local = 0.000117949, global = -2.7071e-07, cumulative = -0.000682523
GAMG:  Solving for p, Initial residual = 0.172059, Final residual = 6.41301e-07, No Iterations 23
time step continuity errors : sum local = 4.91115e-08, global = -5.10005e-13, cumulative = -0.000682523
DILUPBiCGStab:  Solving for omega, Initial residual = 0.0196809, Final residual = 4.05154e-07, No Iterations 3
bounding omega, min: -5.11122 max: 285.075 average: 2.75817
DILUPBiCGStab:  Solving for k, Initial residual = 0.0506042, Final residual = 9.30668e-07, No Iterations 3
bounding k, min: -0.0408847 max: 0.677905 average: 0.00137634
PIMPLE: not converged within 2 iterations
ExecutionTime = 2.09 s  ClockTime = 2 s

Courant Number mean: 2.75026 max: 378.138
Time = 505


Solving3-D cloud kinematicCloud

Cloud: kinematicCloud injector: p3
    Added 500 new parcels

Cloud: kinematicCloud
    Current number of parcels       = 1500
    Current mass in system          = 9.99027e-05
    Linear momentum                 = (4.11166e-05 -6.88155e-07 -5.94908e-06)
   |Linear momentum|                = 4.15505e-05
    Linear kinetic energy           = 1.48761e-05
    Average particle per parcel     = 1
    Injector p1:
      - parcels added               = 500
      - mass introduced             = 8.67211e-05
    Injector p2:
      - parcels added               = 500
      - mass introduced             = 1.08402e-05
    Injector p3:
      - parcels added               = 500
      - mass introduced             = 2.34147e-06
    Injector p4:
      - parcels added               = 0
      - mass introduced             = 0
    Injector p5:
      - parcels added               = 0
      - mass introduced             = 0
    Injector p6:
      - parcels added               = 0
      - mass introduced             = 0
    Injector p7:
      - parcels added               = 0
      - mass introduced             = 0
    Injector p8:
      - parcels added               = 0
      - mass introduced             = 0
    Injector p9:
      - parcels added               = 0
      - mass introduced             = 0
    Injector p10:
      - parcels added               = 0
      - mass introduced             = 0
    Injector p11:
      - parcels added               = 0
      - mass introduced             = 0
    Injector p12:
      - parcels added               = 0
      - mass introduced             = 0
    Injector p13:
      - parcels added               = 0
      - mass introduced             = 0
    Injector p14:
      - parcels added               = 0
      - mass introduced             = 0
    Surface film:
      - parcels absorbed            = 0
      - mass absorbed               = 0
      - parcels ejected             = 0
    Parcel fate: system (number, mass)
      - escape                      = 0, 0
    Parcel fate: patch free_surface (number, mass)
      - escape                      = 0, 0
      - stick                       = 0, 0
    Parcel fate: patch walls (number, mass)
      - escape                      = 0, 0
      - stick                       = 0, 0
    Parcel fate: patch inlet (number, mass)
      - escape                      = 0, 0
      - stick                       = 0, 0
    Parcel fate: patch outlet (number, mass)
      - escape                      = 0, 0
      - stick                       = 0, 0

PIMPLE: iteration 1
DILUPBiCGStab:  Solving for Ux, Initial residual = 0.013355, Final residual = 5.24089e-05, No Iterations 1
DILUPBiCGStab:  Solving for Uy, Initial residual = 0.0640252, Final residual = 0.000203831, No Iterations 1
DILUPBiCGStab:  Solving for Uz, Initial residual = 0.058215, Final residual = 0.000201682, No Iterations 1
GAMG:  Solving for p, Initial residual = 0.245236, Final residual = 0.00217797, No Iterations 3
time step continuity errors : sum local = 0.000167371, global = 7.94089e-08, cumulative = -0.000682443
GAMG:  Solving for p, Initial residual = 0.167946, Final residual = 0.00146629, No Iterations 3
time step continuity errors : sum local = 0.00011373, global = -3.02954e-08, cumulative = -0.000682474
GAMG:  Solving for p, Initial residual = 0.170042, Final residual = 0.00145524, No Iterations 3
time step continuity errors : sum local = 0.000113107, global = -1.89521e-08, cumulative = -0.000682493
GAMG:  Solving for p, Initial residual = 0.1695, Final residual = 5.04149e-07, No Iterations 24
time step continuity errors : sum local = 3.92037e-08, global = -1.8202e-12, cumulative = -0.000682493
PIMPLE: iteration 2
DILUPBiCG:  Solving for Ux, Initial residual = 0.0114498, Final residual = 2.90938e-07, No Iterations 5
DILUPBiCG:  Solving for Uy, Initial residual = 0.0550896, Final residual = 1.82939e-07, No Iterations 6
DILUPBiCG:  Solving for Uz, Initial residual = 0.0508424, Final residual = 1.72895e-07, No Iterations 6
GAMG:  Solving for p, Initial residual = 0.24204, Final residual = 0.00218853, No Iterations 3
time step continuity errors : sum local = 0.000171987, global = -9.81547e-08, cumulative = -0.000682591
GAMG:  Solving for p, Initial residual = 0.165781, Final residual = 0.00145618, No Iterations 3
time step continuity errors : sum local = 0.00011573, global = -1.41361e-07, cumulative = -0.000682732
GAMG:  Solving for p, Initial residual = 0.167835, Final residual = 0.00145203, No Iterations 3
time step continuity errors : sum local = 0.000115629, global = -1.39272e-07, cumulative = -0.000682872
GAMG:  Solving for p, Initial residual = 0.167342, Final residual = 7.67548e-07, No Iterations 14
time step continuity errors : sum local = 6.11515e-08, global = -3.33647e-10, cumulative = -0.000682872
DILUPBiCGStab:  Solving for omega, Initial residual = 0.0224382, Final residual = 7.18495e-07, No Iterations 3
bounding omega, min: -15.1458 max: 448.025 average: 2.75641
DILUPBiCGStab:  Solving for k, Initial residual = 0.0598566, Final residual = 2.67141e-07, No Iterations 3
bounding k, min: -0.0696847 max: 1.65035 average: 0.00140204
PIMPLE: not converged within 2 iterations
ExecutionTime = 3.03 s  ClockTime = 3 s

Courant Number mean: 2.75087 max: 422.367
Time = 506


Solving3-D cloud kinematicCloud

Cloud: kinematicCloud injector: p4
    Added 500 new parcels

Cloud: kinematicCloud
    Current number of parcels       = 2000
    Current mass in system          = 0.000100826
    Linear momentum                 = (3.28577e-05 -4.86954e-07 -6.69688e-06)
   |Linear momentum|                = 3.35368e-05
    Linear kinetic energy           = 1.00122e-05
    Average particle per parcel     = 1
    Injector p1:
      - parcels added               = 500
      - mass introduced             = 8.67211e-05
    Injector p2:
      - parcels added               = 500
      - mass introduced             = 1.08402e-05
    Injector p3:
      - parcels added               = 500
      - mass introduced             = 2.34147e-06
    Injector p4:
      - parcels added               = 500
      - mass introduced             = 9.23406e-07
    Injector p5:
      - parcels added               = 0
      - mass introduced             = 0
    Injector p6:
      - parcels added               = 0
      - mass introduced             = 0
    Injector p7:
      - parcels added               = 0
      - mass introduced             = 0
    Injector p8:
      - parcels added               = 0
      - mass introduced             = 0
    Injector p9:
      - parcels added               = 0
      - mass introduced             = 0
    Injector p10:
      - parcels added               = 0
      - mass introduced             = 0
    Injector p11:
      - parcels added               = 0
      - mass introduced             = 0
    Injector p12:
      - parcels added               = 0
      - mass introduced             = 0
    Injector p13:
      - parcels added               = 0
      - mass introduced             = 0
    Injector p14:
      - parcels added               = 0
      - mass introduced             = 0
    Surface film:
      - parcels absorbed            = 0
      - mass absorbed               = 0
      - parcels ejected             = 0
    Parcel fate: system (number, mass)
      - escape                      = 0, 0
    Parcel fate: patch free_surface (number, mass)
      - escape                      = 0, 0
      - stick                       = 0, 0
    Parcel fate: patch walls (number, mass)
      - escape                      = 0, 0
      - stick                       = 0, 0
    Parcel fate: patch inlet (number, mass)
      - escape                      = 0, 0
      - stick                       = 0, 0
    Parcel fate: patch outlet (number, mass)
      - escape                      = 0, 0
      - stick                       = 0, 0

PIMPLE: iteration 1
DILUPBiCGStab:  Solving for Ux, Initial residual = 0.0133633, Final residual = 4.83256e-05, No Iterations 1
DILUPBiCGStab:  Solving for Uy, Initial residual = 0.0626, Final residual = 0.000204139, No Iterations 1
DILUPBiCGStab:  Solving for Uz, Initial residual = 0.0579801, Final residual = 0.000193134, No Iterations 1
GAMG:  Solving for p, Initial residual = 0.236183, Final residual = 0.00207051, No Iterations 3
time step continuity errors : sum local = 0.000164368, global = 1.00504e-07, cumulative = -0.000682771
GAMG:  Solving for p, Initial residual = 0.162293, Final residual = 0.00139258, No Iterations 3
time step continuity errors : sum local = 0.000111329, global = 4.55545e-08, cumulative = -0.000682726
GAMG:  Solving for p, Initial residual = 0.16438, Final residual = 0.00139097, No Iterations 3
time step continuity errors : sum local = 0.000111407, global = 7.41183e-08, cumulative = -0.000682652
GAMG:  Solving for p, Initial residual = 0.163892, Final residual = 9.72464e-07, No Iterations 22
time step continuity errors : sum local = 7.79279e-08, global = -2.12417e-12, cumulative = -0.000682652
PIMPLE: iteration 2
DILUPBiCG:  Solving for Ux, Initial residual = 0.0115526, Final residual = 1.90397e-07, No Iterations 5
DILUPBiCG:  Solving for Uy, Initial residual = 0.0541251, Final residual = 2.69038e-07, No Iterations 6
DILUPBiCG:  Solving for Uz, Initial residual = 0.0510877, Final residual = 1.2858e-07, No Iterations 6
GAMG:  Solving for p, Initial residual = 0.232156, Final residual = 0.00220401, No Iterations 3
time step continuity errors : sum local = 0.000177368, global = 3.1784e-08, cumulative = -0.00068262
GAMG:  Solving for p, Initial residual = 0.159626, Final residual = 0.00151602, No Iterations 3
time step continuity errors : sum local = 0.000122846, global = 3.56259e-08, cumulative = -0.000682584
GAMG:  Solving for p, Initial residual = 0.161792, Final residual = 0.00150021, No Iterations 3
time step continuity errors : sum local = 0.00012176, global = 2.7789e-08, cumulative = -0.000682556
GAMG:  Solving for p, Initial residual = 0.161303, Final residual = 2.64008e-07, No Iterations 17
time step continuity errors : sum local = 2.14378e-08, global = -2.15488e-11, cumulative = -0.000682557
DILUPBiCGStab:  Solving for omega, Initial residual = 0.0247119, Final residual = 3.76891e-07, No Iterations 3
bounding omega, min: -7.92499 max: 482.096 average: 2.76469
DILUPBiCGStab:  Solving for k, Initial residual = 0.0662509, Final residual = 9.12275e-07, No Iterations 3
bounding k, min: -0.130724 max: 2.29766 average: 0.00143802
PIMPLE: not converged within 2 iterations
ExecutionTime = 4.11 s  ClockTime = 4 s

Courant Number mean: 2.7513 max: 452.656
Time = 507


Solving3-D cloud kinematicCloud

Cloud: kinematicCloud injector: p5
    Added 500 new parcels

Cloud: kinematicCloud
    Current number of parcels       = 2500
    Current mass in system          = 0.000101119
    Linear momentum                 = (2.39867e-05 -3.21297e-07 -5.71554e-06)
   |Linear momentum|                = 2.46603e-05
    Linear kinetic energy           = 5.82152e-06
    Average particle per parcel     = 1
    Injector p1:
      - parcels added               = 500
      - mass introduced             = 8.67211e-05
    Injector p2:
      - parcels added               = 500
      - mass introduced             = 1.08402e-05
    Injector p3:
      - parcels added               = 500
      - mass introduced             = 2.34147e-06
    Injector p4:
      - parcels added               = 500
      - mass introduced             = 9.23406e-07
    Injector p5:
      - parcels added               = 500
      - mass introduced             = 2.92684e-07
    Injector p6:
      - parcels added               = 0
      - mass introduced             = 0
    Injector p7:
      - parcels added               = 0
      - mass introduced             = 0
    Injector p8:
      - parcels added               = 0
      - mass introduced             = 0
    Injector p9:
      - parcels added               = 0
      - mass introduced             = 0
    Injector p10:
      - parcels added               = 0
      - mass introduced             = 0
    Injector p11:
      - parcels added               = 0
      - mass introduced             = 0
    Injector p12:
      - parcels added               = 0
      - mass introduced             = 0
    Injector p13:
      - parcels added               = 0
      - mass introduced             = 0
    Injector p14:
      - parcels added               = 0
      - mass introduced             = 0
    Surface film:
      - parcels absorbed            = 0
      - mass absorbed               = 0
      - parcels ejected             = 0
    Parcel fate: system (number, mass)
      - escape                      = 0, 0
    Parcel fate: patch free_surface (number, mass)
      - escape                      = 0, 0
      - stick                       = 0, 0
    Parcel fate: patch walls (number, mass)
      - escape                      = 0, 0
      - stick                       = 0, 0
    Parcel fate: patch inlet (number, mass)
      - escape                      = 0, 0
      - stick                       = 0, 0
    Parcel fate: patch outlet (number, mass)
      - escape                      = 0, 0
      - stick                       = 0, 0

PIMPLE: iteration 1
DILUPBiCGStab:  Solving for Ux, Initial residual = 0.0137722, Final residual = 4.8112e-05, No Iterations 1
DILUPBiCGStab:  Solving for Uy, Initial residual = 0.0624385, Final residual = 0.000227543, No Iterations 1
DILUPBiCGStab:  Solving for Uz, Initial residual = 0.0583447, Final residual = 0.000173588, No Iterations 1
GAMG:  Solving for p, Initial residual = 0.235442, Final residual = 0.00216356, No Iterations 3
time step continuity errors : sum local = 0.000173593, global = 2.68481e-07, cumulative = -0.000682288
GAMG:  Solving for p, Initial residual = 0.162513, Final residual = 0.00154806, No Iterations 3
time step continuity errors : sum local = 0.000124388, global = 2.78387e-07, cumulative = -0.00068201
GAMG:  Solving for p, Initial residual = 0.16507, Final residual = 0.00150078, No Iterations 3
time step continuity errors : sum local = 0.000120753, global = 2.80872e-07, cumulative = -0.000681729
GAMG:  Solving for p, Initial residual = 0.1645, Final residual = 8.47585e-07, No Iterations 15
time step continuity errors : sum local = 6.82223e-08, global = 1.30723e-09, cumulative = -0.000681727
PIMPLE: iteration 2
DILUPBiCG:  Solving for Ux, Initial residual = 0.0122352, Final residual = 1.93456e-07, No Iterations 5
DILUPBiCG:  Solving for Uy, Initial residual = 0.0545652, Final residual = 6.50753e-07, No Iterations 5
DILUPBiCG:  Solving for Uz, Initial residual = 0.0515512, Final residual = 4.17514e-07, No Iterations 5
GAMG:  Solving for p, Initial residual = 0.242139, Final residual = 0.00221238, No Iterations 3
time step continuity errors : sum local = 0.000177303, global = 8.22086e-08, cumulative = -0.000681645
GAMG:  Solving for p, Initial residual = 0.167892, Final residual = 0.00149058, No Iterations 3
time step continuity errors : sum local = 0.000119338, global = 9.20511e-08, cumulative = -0.000681553
GAMG:  Solving for p, Initial residual = 0.17042, Final residual = 0.00146154, No Iterations 3
time step continuity errors : sum local = 0.0001172, global = 7.71337e-08, cumulative = -0.000681476
GAMG:  Solving for p, Initial residual = 0.169884, Final residual = 9.8581e-07, No Iterations 15
time step continuity errors : sum local = 7.90773e-08, global = 5.59075e-10, cumulative = -0.000681476
DILUPBiCGStab:  Solving for omega, Initial residual = 0.0245404, Final residual = 3.48094e-07, No Iterations 3
bounding omega, min: -11.3268 max: 438.734 average: 2.77425
DILUPBiCGStab:  Solving for k, Initial residual = 0.0708404, Final residual = 7.77122e-07, No Iterations 3
bounding k, min: -0.107123 max: 2.44205 average: 0.00148149
PIMPLE: not converged within 2 iterations
ExecutionTime = 5.22 s  ClockTime = 5 s

Courant Number mean: 2.75154 max: 470.935
Time = 508


Solving3-D cloud kinematicCloud

Cloud: kinematicCloud injector: p6
    Added 500 new parcels

Cloud: kinematicCloud
    Current number of parcels       = 3000
    Current mass in system          = 0.000101222
    Linear momentum                 = (1.57032e-05 7.37752e-08 -5.41119e-06)
   |Linear momentum|                = 1.66095e-05
    Linear kinetic energy           = 3.03475e-06
    Average particle per parcel     = 1
    Injector p1:
      - parcels added               = 500
      - mass introduced             = 8.67211e-05
    Injector p2:
      - parcels added               = 500
      - mass introduced             = 1.08402e-05
    Injector p3:
      - parcels added               = 500
      - mass introduced             = 2.34147e-06
    Injector p4:
      - parcels added               = 500
      - mass introduced             = 9.23406e-07
    Injector p5:
      - parcels added               = 500
      - mass introduced             = 2.92684e-07
    Injector p6:
      - parcels added               = 500
      - mass introduced             = 1.03286e-07
    Injector p7:
      - parcels added               = 0
      - mass introduced             = 0
    Injector p8:
      - parcels added               = 0
      - mass introduced             = 0
    Injector p9:
      - parcels added               = 0
      - mass introduced             = 0
    Injector p10:
      - parcels added               = 0
      - mass introduced             = 0
    Injector p11:
      - parcels added               = 0
      - mass introduced             = 0
    Injector p12:
      - parcels added               = 0
      - mass introduced             = 0
    Injector p13:
      - parcels added               = 0
      - mass introduced             = 0
    Injector p14:
      - parcels added               = 0
      - mass introduced             = 0
    Surface film:
      - parcels absorbed            = 0
      - mass absorbed               = 0
      - parcels ejected             = 0
    Parcel fate: system (number, mass)
      - escape                      = 0, 0
    Parcel fate: patch free_surface (number, mass)
      - escape                      = 0, 0
      - stick                       = 0, 0
    Parcel fate: patch walls (number, mass)
      - escape                      = 0, 0
      - stick                       = 0, 0
    Parcel fate: patch inlet (number, mass)
      - escape                      = 0, 0
      - stick                       = 0, 0
    Parcel fate: patch outlet (number, mass)
      - escape                      = 0, 0
      - stick                       = 0, 0

PIMPLE: iteration 1
DILUPBiCGStab:  Solving for Ux, Initial residual = 0.0141997, Final residual = 4.76747e-05, No Iterations 1
DILUPBiCGStab:  Solving for Uy, Initial residual = 0.0619197, Final residual = 0.000194714, No Iterations 1
DILUPBiCGStab:  Solving for Uz, Initial residual = 0.0593209, Final residual = 0.000154486, No Iterations 1
GAMG:  Solving for p, Initial residual = 0.255259, Final residual = 0.00205143, No Iterations 3
time step continuity errors : sum local = 0.00016286, global = 1.89752e-07, cumulative = -0.000681286
GAMG:  Solving for p, Initial residual = 0.177895, Final residual = 0.00136626, No Iterations 3
time step continuity errors : sum local = 0.000107738, global = 1.95539e-07, cumulative = -0.00068109
GAMG:  Solving for p, Initial residual = 0.180513, Final residual = 0.0013618, No Iterations 3
time step continuity errors : sum local = 0.000107582, global = 2.00596e-07, cumulative = -0.00068089
GAMG:  Solving for p, Initial residual = 0.179839, Final residual = 6.26616e-07, No Iterations 17
time step continuity errors : sum local = 4.95207e-08, global = 2.76866e-12, cumulative = -0.00068089
PIMPLE: iteration 2
DILUPBiCG:  Solving for Ux, Initial residual = 0.0124432, Final residual = 1.28428e-07, No Iterations 5
DILUPBiCG:  Solving for Uy, Initial residual = 0.053974, Final residual = 7.83419e-07, No Iterations 6
DILUPBiCG:  Solving for Uz, Initial residual = 0.0521751, Final residual = 8.17393e-07, No Iterations 5
GAMG:  Solving for p, Initial residual = 0.264234, Final residual = 0.00215317, No Iterations 3
time step continuity errors : sum local = 0.000171126, global = 1.03043e-07, cumulative = -0.000680787
GAMG:  Solving for p, Initial residual = 0.183854, Final residual = 0.00148893, No Iterations 3
time step continuity errors : sum local = 0.000117703, global = 1.01813e-07, cumulative = -0.000680685
GAMG:  Solving for p, Initial residual = 0.186574, Final residual = 0.00148424, No Iterations 3
time step continuity errors : sum local = 0.000117584, global = 9.91625e-08, cumulative = -0.000680586
GAMG:  Solving for p, Initial residual = 0.185835, Final residual = 4.8019e-07, No Iterations 16
time step continuity errors : sum local = 3.80533e-08, global = 7.24539e-10, cumulative = -0.000680585
DILUPBiCGStab:  Solving for omega, Initial residual = 0.0270349, Final residual = 3.52809e-07, No Iterations 3
bounding omega, min: -67.099 max: 486.175 average: 2.78738
DILUPBiCGStab:  Solving for k, Initial residual = 0.0679842, Final residual = 7.71887e-07, No Iterations 3
bounding k, min: -0.169228 max: 2.33529 average: 0.00152944
PIMPLE: not converged within 2 iterations
ExecutionTime = 6.43 s  ClockTime = 6 s

Courant Number mean: 2.75127 max: 463.633
Time = 509


Solving3-D cloud kinematicCloud

Cloud: kinematicCloud injector: p7
    Added 500 new parcels

Cloud: kinematicCloud
    Current number of parcels       = 3500
    Current mass in system          = 0.000101246
    Linear momentum                 = (1.26271e-05 2.44207e-07 -5.18743e-06)
   |Linear momentum|                = 1.36533e-05
    Linear kinetic energy           = 2.12934e-06
    Average particle per parcel     = 1
    Injector p1:
      - parcels added               = 500
      - mass introduced             = 8.67211e-05
    Injector p2:
      - parcels added               = 500
      - mass introduced             = 1.08402e-05
    Injector p3:
      - parcels added               = 500
      - mass introduced             = 2.34147e-06
    Injector p4:
      - parcels added               = 500
      - mass introduced             = 9.23406e-07
    Injector p5:
      - parcels added               = 500
      - mass introduced             = 2.92684e-07
    Injector p6:
      - parcels added               = 500
      - mass introduced             = 1.03286e-07
    Injector p7:
      - parcels added               = 500
      - mass introduced             = 2.40363e-08
    Injector p8:
      - parcels added               = 0
      - mass introduced             = 0
    Injector p9:
      - parcels added               = 0
      - mass introduced             = 0
    Injector p10:
      - parcels added               = 0
      - mass introduced             = 0
    Injector p11:
      - parcels added               = 0
      - mass introduced             = 0
    Injector p12:
      - parcels added               = 0
      - mass introduced             = 0
    Injector p13:
      - parcels added               = 0
      - mass introduced             = 0
    Injector p14:
      - parcels added               = 0
      - mass introduced             = 0
    Surface film:
      - parcels absorbed            = 0
      - mass absorbed               = 0
      - parcels ejected             = 0
    Parcel fate: system (number, mass)
      - escape                      = 0, 0
    Parcel fate: patch free_surface (number, mass)
      - escape                      = 0, 0
      - stick                       = 0, 0
    Parcel fate: patch walls (number, mass)
      - escape                      = 0, 0
      - stick                       = 0, 0
    Parcel fate: patch inlet (number, mass)
      - escape                      = 0, 0
      - stick                       = 0, 0
    Parcel fate: patch outlet (number, mass)
      - escape                      = 0, 0
      - stick                       = 0, 0

PIMPLE: iteration 1
DILUPBiCGStab:  Solving for Ux, Initial residual = 0.0145691, Final residual = 4.46915e-05, No Iterations 1
DILUPBiCGStab:  Solving for Uy, Initial residual = 0.0628082, Final residual = 0.000188299, No Iterations 1
DILUPBiCGStab:  Solving for Uz, Initial residual = 0.0598081, Final residual = 0.000158416, No Iterations 1
GAMG:  Solving for p, Initial residual = 0.262881, Final residual = 0.00203336, No Iterations 3
time step continuity errors : sum local = 0.000160112, global = 1.69871e-07, cumulative = -0.000680415
GAMG:  Solving for p, Initial residual = 0.183077, Final residual = 0.00140464, No Iterations 3
time step continuity errors : sum local = 0.000109884, global = 1.5034e-07, cumulative = -0.000680265
GAMG:  Solving for p, Initial residual = 0.185657, Final residual = 0.00140656, No Iterations 3
time step continuity errors : sum local = 0.000110268, global = 1.56196e-07, cumulative = -0.000680108
GAMG:  Solving for p, Initial residual = 0.18498, Final residual = 7.20657e-07, No Iterations 20
time step continuity errors : sum local = 5.65166e-08, global = 1.8504e-11, cumulative = -0.000680108
PIMPLE: iteration 2
DILUPBiCG:  Solving for Ux, Initial residual = 0.0126141, Final residual = 1.42455e-07, No Iterations 5
DILUPBiCG:  Solving for Uy, Initial residual = 0.0555261, Final residual = 8.10069e-07, No Iterations 5
DILUPBiCG:  Solving for Uz, Initial residual = 0.0525088, Final residual = 6.0936e-07, No Iterations 5
GAMG:  Solving for p, Initial residual = 0.26158, Final residual = 0.00220045, No Iterations 3
time step continuity errors : sum local = 0.00017311, global = 1.18169e-07, cumulative = -0.00067999
GAMG:  Solving for p, Initial residual = 0.181531, Final residual = 0.00151816, No Iterations 3
time step continuity errors : sum local = 0.000119265, global = 1.2068e-07, cumulative = -0.00067987
GAMG:  Solving for p, Initial residual = 0.184087, Final residual = 0.00151895, No Iterations 3
time step continuity errors : sum local = 0.000119571, global = 1.17433e-07, cumulative = -0.000679752
GAMG:  Solving for p, Initial residual = 0.183466, Final residual = 8.51649e-07, No Iterations 20
time step continuity errors : sum local = 6.7068e-08, global = 3.43444e-11, cumulative = -0.000679752
DILUPBiCGStab:  Solving for omega, Initial residual = 0.0306891, Final residual = 3.20163e-07, No Iterations 3
bounding omega, min: -8.72829 max: 356.445 average: 2.78916
DILUPBiCGStab:  Solving for k, Initial residual = 0.0657597, Final residual = 7.90641e-07, No Iterations 3
bounding k, min: -0.14374 max: 2.33314 average: 0.00157163
PIMPLE: not converged within 2 iterations
ExecutionTime = 7.72 s  ClockTime = 7 s

Courant Number mean: 2.74982 max: 429.699
Time = 510


Solving3-D cloud kinematicCloud

Cloud: kinematicCloud injector: p8
    Added 500 new parcels

Cloud: kinematicCloud
    Current number of parcels       = 4000
    Current mass in system          = 0.000101253
    Linear momentum                 = (1.10286e-05 1.32759e-07 -5.17213e-06)
   |Linear momentum|                = 1.21819e-05
    Linear kinetic energy           = 1.65212e-06
    Average particle per parcel     = 1
    Injector p1:
      - parcels added               = 500
      - mass introduced             = 8.67211e-05
    Injector p2:
      - parcels added               = 500
      - mass introduced             = 1.08402e-05
    Injector p3:
      - parcels added               = 500
      - mass introduced             = 2.34147e-06
    Injector p4:
      - parcels added               = 500
      - mass introduced             = 9.23406e-07
    Injector p5:
      - parcels added               = 500
      - mass introduced             = 2.92684e-07
    Injector p6:
      - parcels added               = 500
      - mass introduced             = 1.03286e-07
    Injector p7:
      - parcels added               = 500
      - mass introduced             = 2.40363e-08
    Injector p8:
      - parcels added               = 500
      - mass introduced             = 6.61032e-09
    Injector p9:
      - parcels added               = 0
      - mass introduced             = 0
    Injector p10:
      - parcels added               = 0
      - mass introduced             = 0
    Injector p11:
      - parcels added               = 0
      - mass introduced             = 0
    Injector p12:
      - parcels added               = 0
      - mass introduced             = 0
    Injector p13:
      - parcels added               = 0
      - mass introduced             = 0
    Injector p14:
      - parcels added               = 0
      - mass introduced             = 0
    Surface film:
      - parcels absorbed            = 0
      - mass absorbed               = 0
      - parcels ejected             = 0
    Parcel fate: system (number, mass)
      - escape                      = 0, 0
    Parcel fate: patch free_surface (number, mass)
      - escape                      = 0, 0
      - stick                       = 0, 0
    Parcel fate: patch walls (number, mass)
      - escape                      = 0, 0
      - stick                       = 0, 0
    Parcel fate: patch inlet (number, mass)
      - escape                      = 0, 0
      - stick                       = 0, 0
    Parcel fate: patch outlet (number, mass)
      - escape                      = 0, 0
      - stick                       = 0, 0

PIMPLE: iteration 1
DILUPBiCGStab:  Solving for Ux, Initial residual = 0.0144556, Final residual = 4.61792e-05, No Iterations 1
DILUPBiCGStab:  Solving for Uy, Initial residual = 0.0637335, Final residual = 0.000189263, No Iterations 1
DILUPBiCGStab:  Solving for Uz, Initial residual = 0.0597251, Final residual = 0.000149551, No Iterations 1
GAMG:  Solving for p, Initial residual = 0.256701, Final residual = 0.00214464, No Iterations 3
time step continuity errors : sum local = 0.000167244, global = 1.83657e-07, cumulative = -0.000679568
GAMG:  Solving for p, Initial residual = 0.17946, Final residual = 0.00145012, No Iterations 3
time step continuity errors : sum local = 0.000112348, global = 1.3471e-07, cumulative = -0.000679434
GAMG:  Solving for p, Initial residual = 0.181749, Final residual = 0.00145203, No Iterations 3
time step continuity errors : sum local = 0.000112706, global = 1.68457e-07, cumulative = -0.000679265
GAMG:  Solving for p, Initial residual = 0.181125, Final residual = 9.06731e-07, No Iterations 14
time step continuity errors : sum local = 7.04056e-08, global = -1.36673e-10, cumulative = -0.000679265
PIMPLE: iteration 2
DILUPBiCG:  Solving for Ux, Initial residual = 0.0124331, Final residual = 1.68463e-07, No Iterations 5
DILUPBiCG:  Solving for Uy, Initial residual = 0.0570863, Final residual = 6.52102e-07, No Iterations 5
DILUPBiCG:  Solving for Uz, Initial residual = 0.0521661, Final residual = 4.06775e-07, No Iterations 5
GAMG:  Solving for p, Initial residual = 0.250579, Final residual = 0.00234468, No Iterations 3
time step continuity errors : sum local = 0.000181228, global = 1.38418e-07, cumulative = -0.000679127
GAMG:  Solving for p, Initial residual = 0.174824, Final residual = 0.00158327, No Iterations 3
time step continuity errors : sum local = 0.000121639, global = 1.3918e-07, cumulative = -0.000678988
GAMG:  Solving for p, Initial residual = 0.176983, Final residual = 0.00157979, No Iterations 3
time step continuity errors : sum local = 0.000121577, global = 1.30137e-07, cumulative = -0.000678858
GAMG:  Solving for p, Initial residual = 0.176474, Final residual = 4.15434e-07, No Iterations 16
time step continuity errors : sum local = 3.19821e-08, global = 6.2774e-10, cumulative = -0.000678857
DILUPBiCGStab:  Solving for omega, Initial residual = 0.0239994, Final residual = 4.09377e-07, No Iterations 3
bounding omega, min: -2.69478 max: 324.808 average: 2.78985
DILUPBiCGStab:  Solving for k, Initial residual = 0.0677891, Final residual = 7.8799e-07, No Iterations 3
bounding k, min: -0.113527 max: 2.10465 average: 0.00160696
PIMPLE: not converged within 2 iterations
ExecutionTime = 9.02 s  ClockTime = 9 s

Courant Number mean: 2.7477 max: 449.625
Time = 511


Solving3-D cloud kinematicCloud

Cloud: kinematicCloud injector: p9
    Added 500 new parcels

Cloud: kinematicCloud
    Current number of parcels       = 4500
    Current mass in system          = 0.000101254
    Linear momentum                 = (1.0423e-05 1.43259e-07 -4.75218e-06)
   |Linear momentum|                = 1.14562e-05
    Linear kinetic energy           = 1.41373e-06
    Average particle per parcel     = 1
    Injector p1:
      - parcels added               = 500
      - mass introduced             = 8.67211e-05
    Injector p2:
      - parcels added               = 500
      - mass introduced             = 1.08402e-05
    Injector p3:
      - parcels added               = 500
      - mass introduced             = 2.34147e-06
    Injector p4:
      - parcels added               = 500
      - mass introduced             = 9.23406e-07
    Injector p5:
      - parcels added               = 500
      - mass introduced             = 2.92684e-07
    Injector p6:
      - parcels added               = 500
      - mass introduced             = 1.03286e-07
    Injector p7:
      - parcels added               = 500
      - mass introduced             = 2.40363e-08
    Injector p8:
      - parcels added               = 500
      - mass introduced             = 6.61032e-09
    Injector p9:
      - parcels added               = 500
      - mass introduced             = 1.35502e-09
    Injector p10:
      - parcels added               = 0
      - mass introduced             = 0
    Injector p11:
      - parcels added               = 0
      - mass introduced             = 0
    Injector p12:
      - parcels added               = 0
      - mass introduced             = 0
    Injector p13:
      - parcels added               = 0
      - mass introduced             = 0
    Injector p14:
      - parcels added               = 0
      - mass introduced             = 0
    Surface film:
      - parcels absorbed            = 0
      - mass absorbed               = 0
      - parcels ejected             = 0
    Parcel fate: system (number, mass)
      - escape                      = 0, 0
    Parcel fate: patch free_surface (number, mass)
      - escape                      = 0, 0
      - stick                       = 0, 0
    Parcel fate: patch walls (number, mass)
      - escape                      = 0, 0
      - stick                       = 0, 0
    Parcel fate: patch inlet (number, mass)
      - escape                      = 0, 0
      - stick                       = 0, 0
    Parcel fate: patch outlet (number, mass)
      - escape                      = 0, 0
      - stick                       = 0, 0

PIMPLE: iteration 1
DILUPBiCGStab:  Solving for Ux, Initial residual = 0.0142124, Final residual = 4.64149e-05, No Iterations 1
DILUPBiCGStab:  Solving for Uy, Initial residual = 0.065082, Final residual = 0.000191476, No Iterations 1
DILUPBiCGStab:  Solving for Uz, Initial residual = 0.0582842, Final residual = 0.000155812, No Iterations 1
GAMG:  Solving for p, Initial residual = 0.252514, Final residual = 0.002393, No Iterations 3
time step continuity errors : sum local = 0.00018136, global = 2.38065e-07, cumulative = -0.000678619
GAMG:  Solving for p, Initial residual = 0.176113, Final residual = 0.00155131, No Iterations 3
time step continuity errors : sum local = 0.000116391, global = 2.31228e-07, cumulative = -0.000678388
GAMG:  Solving for p, Initial residual = 0.178499, Final residual = 0.00155609, No Iterations 3
time step continuity errors : sum local = 0.00011691, global = 2.3191e-07, cumulative = -0.000678156
GAMG:  Solving for p, Initial residual = 0.178027, Final residual = 6.81268e-07, No Iterations 19
time step continuity errors : sum local = 5.11969e-08, global = -1.02085e-11, cumulative = -0.000678156
PIMPLE: iteration 2
DILUPBiCG:  Solving for Ux, Initial residual = 0.0120664, Final residual = 2.42802e-07, No Iterations 5
DILUPBiCG:  Solving for Uy, Initial residual = 0.0571633, Final residual = 8.65524e-07, No Iterations 5
DILUPBiCG:  Solving for Uz, Initial residual = 0.0505744, Final residual = 1.5827e-07, No Iterations 6
GAMG:  Solving for p, Initial residual = 0.25766, Final residual = 0.000941584, No Iterations 4
time step continuity errors : sum local = 7.0527e-05, global = 3.88282e-08, cumulative = -0.000678117
GAMG:  Solving for p, Initial residual = 0.179437, Final residual = 0.00162893, No Iterations 3
time step continuity errors : sum local = 0.0001208, global = 1.14384e-07, cumulative = -0.000678003
GAMG:  Solving for p, Initial residual = 0.182249, Final residual = 0.00169131, No Iterations 3
time step continuity errors : sum local = 0.000125581, global = 1.4346e-07, cumulative = -0.000677859
GAMG:  Solving for p, Initial residual = 0.18173, Final residual = 6.64254e-07, No Iterations 19
time step continuity errors : sum local = 4.9336e-08, global = -9.32338e-12, cumulative = -0.000677859
DILUPBiCGStab:  Solving for omega, Initial residual = 0.0224806, Final residual = 4.33943e-07, No Iterations 3
bounding omega, min: -7.61506 max: 265.225 average: 2.78296
DILUPBiCGStab:  Solving for k, Initial residual = 0.0672812, Final residual = 8.51507e-07, No Iterations 3
bounding k, min: -0.0280959 max: 1.59949 average: 0.00161307
PIMPLE: not converged within 2 iterations
ExecutionTime = 10.4 s  ClockTime = 10 s

Courant Number mean: 2.74517 max: 406.702
Time = 512


Solving3-D cloud kinematicCloud

Cloud: kinematicCloud injector: p10
    Added 500 new parcels

Cloud: kinematicCloud
    Current number of parcels       = 5000
    Current mass in system          = 0.000101255
    Linear momentum                 = (8.98409e-06 6.6305e-08 -4.60258e-06)
   |Linear momentum|                = 1.00947e-05
    Linear kinetic energy           = 1.15257e-06
    Average particle per parcel     = 1
    Injector p1:
      - parcels added               = 500
      - mass introduced             = 8.67211e-05
    Injector p2:
      - parcels added               = 500
      - mass introduced             = 1.08402e-05
    Injector p3:
      - parcels added               = 500
      - mass introduced             = 2.34147e-06
    Injector p4:
      - parcels added               = 500
      - mass introduced             = 9.23406e-07
    Injector p5:
      - parcels added               = 500
      - mass introduced             = 2.92684e-07
    Injector p6:
      - parcels added               = 500
      - mass introduced             = 1.03286e-07
    Injector p7:
      - parcels added               = 500
      - mass introduced             = 2.40363e-08
    Injector p8:
      - parcels added               = 500
      - mass introduced             = 6.61032e-09
    Injector p9:
      - parcels added               = 500
      - mass introduced             = 1.35502e-09
    Injector p10:
      - parcels added               = 500
      - mass introduced             = 4.89085e-10
    Injector p11:
      - parcels added               = 0
      - mass introduced             = 0
    Injector p12:
      - parcels added               = 0
      - mass introduced             = 0
    Injector p13:
      - parcels added               = 0
      - mass introduced             = 0
    Injector p14:
      - parcels added               = 0
      - mass introduced             = 0
    Surface film:
      - parcels absorbed            = 0
      - mass absorbed               = 0
      - parcels ejected             = 0
    Parcel fate: system (number, mass)
      - escape                      = 0, 0
    Parcel fate: patch free_surface (number, mass)
      - escape                      = 0, 0
      - stick                       = 0, 0
    Parcel fate: patch walls (number, mass)
      - escape                      = 0, 0
      - stick                       = 0, 0
    Parcel fate: patch inlet (number, mass)
      - escape                      = 0, 0
      - stick                       = 0, 0
    Parcel fate: patch outlet (number, mass)
      - escape                      = 0, 0
      - stick                       = 0, 0

PIMPLE: iteration 1
DILUPBiCGStab:  Solving for Ux, Initial residual = 0.0136612, Final residual = 4.62831e-05, No Iterations 1
DILUPBiCGStab:  Solving for Uy, Initial residual = 0.0646093, Final residual = 0.000197542, No Iterations 1
DILUPBiCGStab:  Solving for Uz, Initial residual = 0.0571203, Final residual = 0.000164667, No Iterations 1
GAMG:  Solving for p, Initial residual = 0.259775, Final residual = 0.000936083, No Iterations 4
time step continuity errors : sum local = 6.85772e-05, global = 1.69031e-07, cumulative = -0.00067769
GAMG:  Solving for p, Initial residual = 0.181407, Final residual = 0.00176537, No Iterations 3
time step continuity errors : sum local = 0.000127602, global = 1.92294e-07, cumulative = -0.000677498
GAMG:  Solving for p, Initial residual = 0.184249, Final residual = 0.00184104, No Iterations 3
time step continuity errors : sum local = 0.000133261, global = 2.10505e-07, cumulative = -0.000677287
GAMG:  Solving for p, Initial residual = 0.183749, Final residual = 4.56515e-07, No Iterations 16
time step continuity errors : sum local = 3.30533e-08, global = -6.37676e-10, cumulative = -0.000677288
PIMPLE: iteration 2
DILUPBiCG:  Solving for Ux, Initial residual = 0.0114172, Final residual = 7.96077e-07, No Iterations 5
DILUPBiCG:  Solving for Uy, Initial residual = 0.0546978, Final residual = 4.82895e-07, No Iterations 5
DILUPBiCG:  Solving for Uz, Initial residual = 0.049022, Final residual = 1.73571e-07, No Iterations 6
GAMG:  Solving for p, Initial residual = 0.257713, Final residual = 0.00110159, No Iterations 4
time step continuity errors : sum local = 7.95653e-05, global = 1.40983e-07, cumulative = -0.000677147
GAMG:  Solving for p, Initial residual = 0.179644, Final residual = 0.000730687, No Iterations 4
time step continuity errors : sum local = 5.21314e-05, global = 9.29026e-08, cumulative = -0.000677054
GAMG:  Solving for p, Initial residual = 0.18252, Final residual = 0.000742793, No Iterations 4
time step continuity errors : sum local = 5.30695e-05, global = 9.57334e-08, cumulative = -0.000676958
GAMG:  Solving for p, Initial residual = 0.18198, Final residual = 4.52221e-07, No Iterations 15
time step continuity errors : sum local = 3.23172e-08, global = 1.18891e-10, cumulative = -0.000676958
DILUPBiCGStab:  Solving for omega, Initial residual = 0.021799, Final residual = 4.84632e-07, No Iterations 3
bounding omega, min: -1.57872 max: 216.663 average: 2.77232
DILUPBiCGStab:  Solving for k, Initial residual = 0.0646271, Final residual = 3.62342e-07, No Iterations 3
bounding k, min: -0.0667905 max: 1.10698 average: 0.00158643
PIMPLE: not converged within 2 iterations
ExecutionTime = 11.78 s  ClockTime = 11 s

Courant Number mean: 2.74186 max: 281.302
Time = 513


Solving3-D cloud kinematicCloud

Cloud: kinematicCloud injector: p11
    Added 500 new parcels

Cloud: kinematicCloud
    Current number of parcels       = 5500
    Current mass in system          = 0.000101255
    Linear momentum                 = (8.55235e-06 6.27676e-08 -4.89718e-06)
   |Linear momentum|                = 9.8554e-06
    Linear kinetic energy           = 1.02463e-06
    Average particle per parcel     = 1
    Injector p1:
      - parcels added               = 500
      - mass introduced             = 8.67211e-05
    Injector p2:
      - parcels added               = 500
      - mass introduced             = 1.08402e-05
    Injector p3:
      - parcels added               = 500
      - mass introduced             = 2.34147e-06
    Injector p4:
      - parcels added               = 500
      - mass introduced             = 9.23406e-07
    Injector p5:
      - parcels added               = 500
      - mass introduced             = 2.92684e-07
    Injector p6:
      - parcels added               = 500
      - mass introduced             = 1.03286e-07
    Injector p7:
      - parcels added               = 500
      - mass introduced             = 2.40363e-08
    Injector p8:
      - parcels added               = 500
      - mass introduced             = 6.61032e-09
    Injector p9:
      - parcels added               = 500
      - mass introduced             = 1.35502e-09
    Injector p10:
      - parcels added               = 500
      - mass introduced             = 4.89085e-10
    Injector p11:
      - parcels added               = 500
      - mass introduced             = 1.81868e-10
    Injector p12:
      - parcels added               = 0
      - mass introduced             = 0
    Injector p13:
      - parcels added               = 0
      - mass introduced             = 0
    Injector p14:
      - parcels added               = 0
      - mass introduced             = 0
    Surface film:
      - parcels absorbed            = 0
      - mass absorbed               = 0
      - parcels ejected             = 0
    Parcel fate: system (number, mass)
      - escape                      = 0, 0
    Parcel fate: patch free_surface (number, mass)
      - escape                      = 0, 0
      - stick                       = 0, 0
    Parcel fate: patch walls (number, mass)
      - escape                      = 0, 0
      - stick                       = 0, 0
    Parcel fate: patch inlet (number, mass)
      - escape                      = 0, 0
      - stick                       = 0, 0
    Parcel fate: patch outlet (number, mass)
      - escape                      = 0, 0
      - stick                       = 0, 0

PIMPLE: iteration 1
DILUPBiCGStab:  Solving for Ux, Initial residual = 0.0129438, Final residual = 4.50824e-05, No Iterations 1
DILUPBiCGStab:  Solving for Uy, Initial residual = 0.061923, Final residual = 0.0001904, No Iterations 1
DILUPBiCGStab:  Solving for Uz, Initial residual = 0.0555797, Final residual = 0.000150507, No Iterations 1
GAMG:  Solving for p, Initial residual = 0.252366, Final residual = 0.00099816, No Iterations 4
time step continuity errors : sum local = 7.02138e-05, global = 1.12468e-07, cumulative = -0.000676846
GAMG:  Solving for p, Initial residual = 0.175907, Final residual = 0.000666253, No Iterations 4
time step continuity errors : sum local = 4.61254e-05, global = 1.16178e-07, cumulative = -0.00067673
GAMG:  Solving for p, Initial residual = 0.178853, Final residual = 0.000682019, No Iterations 4
time step continuity errors : sum local = 4.72848e-05, global = 1.35777e-07, cumulative = -0.000676594
GAMG:  Solving for p, Initial residual = 0.178314, Final residual = 9.06459e-07, No Iterations 19
time step continuity errors : sum local = 6.28649e-08, global = -6.59025e-12, cumulative = -0.000676594
PIMPLE: iteration 2
DILUPBiCG:  Solving for Ux, Initial residual = 0.0108734, Final residual = 1.19372e-07, No Iterations 5
DILUPBiCG:  Solving for Uy, Initial residual = 0.0528991, Final residual = 4.53743e-07, No Iterations 5
DILUPBiCG:  Solving for Uz, Initial residual = 0.047864, Final residual = 9.65167e-07, No Iterations 5
GAMG:  Solving for p, Initial residual = 0.251084, Final residual = 0.000945492, No Iterations 4
time step continuity errors : sum local = 6.52044e-05, global = 7.98288e-08, cumulative = -0.000676514
GAMG:  Solving for p, Initial residual = 0.176112, Final residual = 0.00174285, No Iterations 3
time step continuity errors : sum local = 0.000118208, global = 1.1604e-07, cumulative = -0.000676398
GAMG:  Solving for p, Initial residual = 0.178768, Final residual = 0.000660918, No Iterations 4
time step continuity errors : sum local = 4.48876e-05, global = 5.13483e-08, cumulative = -0.000676347
GAMG:  Solving for p, Initial residual = 0.178073, Final residual = 4.74778e-07, No Iterations 20
time step continuity errors : sum local = 3.2259e-08, global = 2.04194e-12, cumulative = -0.000676347
DILUPBiCGStab:  Solving for omega, Initial residual = 0.0210284, Final residual = 2.63221e-08, No Iterations 4
bounding omega, min: -18.7759 max: 186.452 average: 2.75627
DILUPBiCGStab:  Solving for k, Initial residual = 0.0611437, Final residual = 3.1036e-07, No Iterations 3
bounding k, min: -0.0295734 max: 0.753787 average: 0.00155583
PIMPLE: not converged within 2 iterations
ExecutionTime = 13.23 s  ClockTime = 13 s

Courant Number mean: 2.7378 max: 208.932
Time = 514


Solving3-D cloud kinematicCloud

Cloud: kinematicCloud injector: p12
    Added 500 new parcels

Cloud: kinematicCloud
    Current number of parcels       = 6000
    Current mass in system          = 0.000101255
    Linear momentum                 = (7.97279e-06 4.94873e-08 -4.95131e-06)
   |Linear momentum|                = 9.38527e-06
    Linear kinetic energy           = 8.93466e-07
    Average particle per parcel     = 1
    Injector p1:
      - parcels added               = 500
      - mass introduced             = 8.67211e-05
    Injector p2:
      - parcels added               = 500
      - mass introduced             = 1.08402e-05
    Injector p3:
      - parcels added               = 500
      - mass introduced             = 2.34147e-06
    Injector p4:
      - parcels added               = 500
      - mass introduced             = 9.23406e-07
    Injector p5:
      - parcels added               = 500
      - mass introduced             = 2.92684e-07
    Injector p6:
      - parcels added               = 500
      - mass introduced             = 1.03286e-07
    Injector p7:
      - parcels added               = 500
      - mass introduced             = 2.40363e-08
    Injector p8:
      - parcels added               = 500
      - mass introduced             = 6.61032e-09
    Injector p9:
      - parcels added               = 500
      - mass introduced             = 1.35502e-09
    Injector p10:
      - parcels added               = 500
      - mass introduced             = 4.89085e-10
    Injector p11:
      - parcels added               = 500
      - mass introduced             = 1.81868e-10
    Injector p12:
      - parcels added               = 500
      - mass introduced             = 5.51595e-11
    Injector p13:
      - parcels added               = 0
      - mass introduced             = 0
    Injector p14:
      - parcels added               = 0
      - mass introduced             = 0
    Surface film:
      - parcels absorbed            = 0
      - mass absorbed               = 0
      - parcels ejected             = 0
    Parcel fate: system (number, mass)
      - escape                      = 0, 0
    Parcel fate: patch free_surface (number, mass)
      - escape                      = 0, 0
      - stick                       = 0, 0
    Parcel fate: patch walls (number, mass)
      - escape                      = 0, 0
      - stick                       = 0, 0
    Parcel fate: patch inlet (number, mass)
      - escape                      = 0, 0
      - stick                       = 0, 0
    Parcel fate: patch outlet (number, mass)
      - escape                      = 0, 0
      - stick                       = 0, 0

PIMPLE: iteration 1
DILUPBiCGStab:  Solving for Ux, Initial residual = 0.0125912, Final residual = 4.3615e-05, No Iterations 1
DILUPBiCGStab:  Solving for Uy, Initial residual = 0.0603365, Final residual = 0.000181099, No Iterations 1
DILUPBiCGStab:  Solving for Uz, Initial residual = 0.0548488, Final residual = 0.000156286, No Iterations 1
GAMG:  Solving for p, Initial residual = 0.253277, Final residual = 0.00231955, No Iterations 3
time step continuity errors : sum local = 0.000155429, global = 7.47177e-08, cumulative = -0.000676272
GAMG:  Solving for p, Initial residual = 0.179053, Final residual = 0.0015637, No Iterations 3
time step continuity errors : sum local = 0.000102707, global = 9.88687e-08, cumulative = -0.000676173
GAMG:  Solving for p, Initial residual = 0.181197, Final residual = 0.00158797, No Iterations 3
time step continuity errors : sum local = 0.000104446, global = 1.0842e-07, cumulative = -0.000676065
GAMG:  Solving for p, Initial residual = 0.180678, Final residual = 5.49593e-07, No Iterations 20
time step continuity errors : sum local = 3.6162e-08, global = 3.30094e-12, cumulative = -0.000676065
PIMPLE: iteration 2
DILUPBiCG:  Solving for Ux, Initial residual = 0.0105412, Final residual = 1.53095e-07, No Iterations 5
DILUPBiCG:  Solving for Uy, Initial residual = 0.0505567, Final residual = 9.33708e-07, No Iterations 5
DILUPBiCG:  Solving for Uz, Initial residual = 0.0466777, Final residual = 3.59084e-07, No Iterations 5
GAMG:  Solving for p, Initial residual = 0.255684, Final residual = 0.00219462, No Iterations 3
time step continuity errors : sum local = 0.000143651, global = 1.96959e-07, cumulative = -0.000675868
GAMG:  Solving for p, Initial residual = 0.180331, Final residual = 0.00146831, No Iterations 3
time step continuity errors : sum local = 9.46083e-05, global = 1.36727e-07, cumulative = -0.000675731
GAMG:  Solving for p, Initial residual = 0.182411, Final residual = 0.0014856, No Iterations 3
time step continuity errors : sum local = 9.58445e-05, global = 1.26358e-07, cumulative = -0.000675605
GAMG:  Solving for p, Initial residual = 0.181935, Final residual = 8.52381e-07, No Iterations 20
time step continuity errors : sum local = 5.50096e-08, global = 4.48463e-12, cumulative = -0.000675605
DILUPBiCGStab:  Solving for omega, Initial residual = 0.0199416, Final residual = 8.21193e-07, No Iterations 3
bounding omega, min: -0.499948 max: 180.713 average: 2.73916
DILUPBiCGStab:  Solving for k, Initial residual = 0.0577579, Final residual = 3.4989e-07, No Iterations 3
bounding k, min: -0.0215771 max: 0.483235 average: 0.00152553
PIMPLE: not converged within 2 iterations
ExecutionTime = 14.65 s  ClockTime = 14 s

Courant Number mean: 2.73318 max: 214.197
Time = 515


Solving3-D cloud kinematicCloud

Cloud: kinematicCloud injector: p13
    Added 500 new parcels

Cloud: kinematicCloud
    Current number of parcels       = 6500
    Current mass in system          = 0.000101255
    Linear momentum                 = (7.27187e-06 -1.23782e-07 -4.96116e-06)
   |Linear momentum|                = 8.80389e-06
    Linear kinetic energy           = 7.42328e-07
    Average particle per parcel     = 1
    Injector p1:
      - parcels added               = 500
      - mass introduced             = 8.67211e-05
    Injector p2:
      - parcels added               = 500
      - mass introduced             = 1.08402e-05
    Injector p3:
      - parcels added               = 500
      - mass introduced             = 2.34147e-06
    Injector p4:
      - parcels added               = 500
      - mass introduced             = 9.23406e-07
    Injector p5:
      - parcels added               = 500
      - mass introduced             = 2.92684e-07
    Injector p6:
      - parcels added               = 500
      - mass introduced             = 1.03286e-07
    Injector p7:
      - parcels added               = 500
      - mass introduced             = 2.40363e-08
    Injector p8:
      - parcels added               = 500
      - mass introduced             = 6.61032e-09
    Injector p9:
      - parcels added               = 500
      - mass introduced             = 1.35502e-09
    Injector p10:
      - parcels added               = 500
      - mass introduced             = 4.89085e-10
    Injector p11:
      - parcels added               = 500
      - mass introduced             = 1.81868e-10
    Injector p12:
      - parcels added               = 500
      - mass introduced             = 5.51595e-11
    Injector p13:
      - parcels added               = 500
      - mass introduced             = 2.49321e-11
    Injector p14:
      - parcels added               = 0
      - mass introduced             = 0
    Surface film:
      - parcels absorbed            = 0
      - mass absorbed               = 0
      - parcels ejected             = 0
    Parcel fate: system (number, mass)
      - escape                      = 0, 0
    Parcel fate: patch free_surface (number, mass)
      - escape                      = 0, 0
      - stick                       = 0, 0
    Parcel fate: patch walls (number, mass)
      - escape                      = 0, 0
      - stick                       = 0, 0
    Parcel fate: patch inlet (number, mass)
      - escape                      = 0, 0
      - stick                       = 0, 0
    Parcel fate: patch outlet (number, mass)
      - escape                      = 0, 0
      - stick                       = 0, 0

PIMPLE: iteration 1
DILUPBiCGStab:  Solving for Ux, Initial residual = 0.0121362, Final residual = 4.23734e-05, No Iterations 1
DILUPBiCGStab:  Solving for Uy, Initial residual = 0.0579379, Final residual = 0.000183978, No Iterations 1
DILUPBiCGStab:  Solving for Uz, Initial residual = 0.0536063, Final residual = 0.000160254, No Iterations 1
GAMG:  Solving for p, Initial residual = 0.256065, Final residual = 0.00213796, No Iterations 3
time step continuity errors : sum local = 0.000135997, global = 1.02848e-07, cumulative = -0.000675502
GAMG:  Solving for p, Initial residual = 0.180564, Final residual = 0.00146837, No Iterations 3
time step continuity errors : sum local = 9.17792e-05, global = 8.38881e-08, cumulative = -0.000675418
GAMG:  Solving for p, Initial residual = 0.182731, Final residual = 0.00147451, No Iterations 3
time step continuity errors : sum local = 9.22875e-05, global = 8.56428e-08, cumulative = -0.000675332
GAMG:  Solving for p, Initial residual = 0.182283, Final residual = 4.49881e-07, No Iterations 18
time step continuity errors : sum local = 2.81641e-08, global = 4.07483e-12, cumulative = -0.000675332
PIMPLE: iteration 2
DILUPBiCG:  Solving for Ux, Initial residual = 0.0101013, Final residual = 2.0698e-07, No Iterations 5
DILUPBiCG:  Solving for Uy, Initial residual = 0.0482017, Final residual = 8.49182e-07, No Iterations 6
DILUPBiCG:  Solving for Uz, Initial residual = 0.0455689, Final residual = 7.8582e-07, No Iterations 6
GAMG:  Solving for p, Initial residual = 0.253223, Final residual = 0.00236978, No Iterations 3
time step continuity errors : sum local = 0.000147814, global = 1.49984e-07, cumulative = -0.000675182
GAMG:  Solving for p, Initial residual = 0.178123, Final residual = 0.00166188, No Iterations 3
time step continuity errors : sum local = 0.000102112, global = 1.11252e-07, cumulative = -0.000675071
GAMG:  Solving for p, Initial residual = 0.180423, Final residual = 0.00166313, No Iterations 3
time step continuity errors : sum local = 0.000102326, global = 1.08987e-07, cumulative = -0.000674962
GAMG:  Solving for p, Initial residual = 0.179971, Final residual = 2.85716e-07, No Iterations 16
time step continuity errors : sum local = 1.75827e-08, global = -1.66805e-13, cumulative = -0.000674962
DILUPBiCGStab:  Solving for omega, Initial residual = 0.0192316, Final residual = 7.24498e-07, No Iterations 3
bounding omega, min: -3.17322 max: 235.74 average: 2.72225
DILUPBiCGStab:  Solving for k, Initial residual = 0.0530296, Final residual = 3.92733e-07, No Iterations 3
bounding k, min: -0.0129642 max: 0.323569 average: 0.001503
PIMPLE: not converged within 2 iterations
ExecutionTime = 16.09 s  ClockTime = 16 s

Courant Number mean: 2.72856 max: 196.653
Time = 516


Solving3-D cloud kinematicCloud

Cloud: kinematicCloud injector: p14
    Added 500 new parcels

Cloud: kinematicCloud
    Current number of parcels       = 7000
    Current mass in system          = 0.000101255
    Linear momentum                 = (6.8151e-06 -1.75219e-07 -5.13283e-06)
   |Linear momentum|                = 8.53359e-06
    Linear kinetic energy           = 6.82475e-07
    Average particle per parcel     = 1
    Injector p1:
      - parcels added               = 500
      - mass introduced             = 8.67211e-05
    Injector p2:
      - parcels added               = 500
      - mass introduced             = 1.08402e-05
    Injector p3:
      - parcels added               = 500
      - mass introduced             = 2.34147e-06
    Injector p4:
      - parcels added               = 500
      - mass introduced             = 9.23406e-07
    Injector p5:
      - parcels added               = 500
      - mass introduced             = 2.92684e-07
    Injector p6:
      - parcels added               = 500
      - mass introduced             = 1.03286e-07
    Injector p7:
      - parcels added               = 500
      - mass introduced             = 2.40363e-08
    Injector p8:
      - parcels added               = 500
      - mass introduced             = 6.61032e-09
    Injector p9:
      - parcels added               = 500
      - mass introduced             = 1.35502e-09
    Injector p10:
      - parcels added               = 500
      - mass introduced             = 4.89085e-10
    Injector p11:
      - parcels added               = 500
      - mass introduced             = 1.81868e-10
    Injector p12:
      - parcels added               = 500
      - mass introduced             = 5.51595e-11
    Injector p13:
      - parcels added               = 500
      - mass introduced             = 2.49321e-11
    Injector p14:
      - parcels added               = 500
      - mass introduced             = 1.52421e-12
    Surface film:
      - parcels absorbed            = 0
      - mass absorbed               = 0
      - parcels ejected             = 0
    Parcel fate: system (number, mass)
      - escape                      = 0, 0
    Parcel fate: patch free_surface (number, mass)
      - escape                      = 0, 0
      - stick                       = 0, 0
    Parcel fate: patch walls (number, mass)
      - escape                      = 0, 0
      - stick                       = 0, 0
    Parcel fate: patch inlet (number, mass)
      - escape                      = 0, 0
      - stick                       = 0, 0
    Parcel fate: patch outlet (number, mass)
      - escape                      = 0, 0
      - stick                       = 0, 0

PIMPLE: iteration 1
DILUPBiCGStab:  Solving for Ux, Initial residual = 0.0116807, Final residual = 4.10722e-05, No Iterations 1
DILUPBiCGStab:  Solving for Uy, Initial residual = 0.0558101, Final residual = 0.000204504, No Iterations 1
DILUPBiCGStab:  Solving for Uz, Initial residual = 0.0525073, Final residual = 0.000169911, No Iterations 1
GAMG:  Solving for p, Initial residual = 0.249344, Final residual = 0.00231687, No Iterations 3
time step continuity errors : sum local = 0.000140225, global = 9.68355e-08, cumulative = -0.000674865
GAMG:  Solving for p, Initial residual = 0.175573, Final residual = 0.00160357, No Iterations 3
time step continuity errors : sum local = 9.55202e-05, global = 7.97182e-08, cumulative = -0.000674785
GAMG:  Solving for p, Initial residual = 0.17775, Final residual = 0.00160821, No Iterations 3
time step continuity errors : sum local = 9.59491e-05, global = 8.37529e-08, cumulative = -0.000674702
GAMG:  Solving for p, Initial residual = 0.177269, Final residual = 7.23857e-07, No Iterations 25
time step continuity errors : sum local = 4.3197e-08, global = 2.53918e-12, cumulative = -0.000674702
PIMPLE: iteration 2
DILUPBiCG:  Solving for Ux, Initial residual = 0.00963625, Final residual = 9.06368e-07, No Iterations 4
DILUPBiCG:  Solving for Uy, Initial residual = 0.0464701, Final residual = 8.04983e-07, No Iterations 6
DILUPBiCG:  Solving for Uz, Initial residual = 0.0442786, Final residual = 3.3373e-07, No Iterations 6
GAMG:  Solving for p, Initial residual = 0.244998, Final residual = 0.00201917, No Iterations 3
time step continuity errors : sum local = 0.000119807, global = 6.09867e-08, cumulative = -0.000674641
GAMG:  Solving for p, Initial residual = 0.17222, Final residual = 0.0013678, No Iterations 3
time step continuity errors : sum local = 8.00393e-05, global = -4.93501e-08, cumulative = -0.00067469
GAMG:  Solving for p, Initial residual = 0.174304, Final residual = 0.00136494, No Iterations 3
time step continuity errors : sum local = 7.99985e-05, global = -3.37763e-08, cumulative = -0.000674724
GAMG:  Solving for p, Initial residual = 0.173832, Final residual = 4.17291e-07, No Iterations 21
time step continuity errors : sum local = 2.44625e-08, global = 8.59398e-13, cumulative = -0.000674724
[...]
      - parcels added               = 500
      - mass introduced             = 2.49321e-11
    Injector p14:
      - parcels added               = 500
      - mass introduced             = 1.52421e-12
    Surface film:
      - parcels absorbed            = 0
      - mass absorbed               = 0
      - parcels ejected             = 0
    Parcel fate: system (number, mass)
      - escape                      = 3598, 2.15798e-07
    Parcel fate: patch free_surface (number, mass)
      - escape                      = 0, 0
      - stick                       = 0, 0
    Parcel fate: patch walls (number, mass)
      - escape                      = 0, 0
      - stick                       = 0, 0
    Parcel fate: patch inlet (number, mass)
      - escape                      = 0, 0
      - stick                       = 0, 0
    Parcel fate: patch outlet (number, mass)
      - escape                      = 3598, 2.15798e-07
      - stick                       = 0, 0

PIMPLE: iteration 1
DILUPBiCGStab:  Solving for Ux, Initial residual = 0.008275, Final residual = 4.91222e-05, No Iterations 1
DILUPBiCGStab:  Solving for Uy, Initial residual = 0.047726, Final residual = 0.000290435, No Iterations 1
DILUPBiCGStab:  Solving for Uz, Initial residual = 0.0449214, Final residual = 0.000245701, No Iterations 1
GAMG:  Solving for p, Initial residual = 0.249322, Final residual = 0.00135961, No Iterations 4
time step continuity errors : sum local = 5.50522e-05, global = 8.42864e-09, cumulative = -0.000688718
GAMG:  Solving for p, Initial residual = 0.17011, Final residual = 0.00092778, No Iterations 4
time step continuity errors : sum local = 3.72381e-05, global = -6.66004e-08, cumulative = -0.000688785
GAMG:  Solving for p, Initial residual = 0.172259, Final residual = 0.000930041, No Iterations 4
time step continuity errors : sum local = 3.73921e-05, global = -5.48964e-08, cumulative = -0.00068884
GAMG:  Solving for p, Initial residual = 0.171844, Final residual = 9.47138e-07, No Iterations 16
time step continuity errors : sum local = 3.80982e-08, global = 3.96917e-11, cumulative = -0.00068884
PIMPLE: iteration 2
DILUPBiCG:  Solving for Ux, Initial residual = 0.00646157, Final residual = 1.43262e-07, No Iterations 6
DILUPBiCG:  Solving for Uy, Initial residual = 0.036259, Final residual = 3.16559e-07, No Iterations 6
DILUPBiCG:  Solving for Uz, Initial residual = 0.0335604, Final residual = 2.4876e-07, No Iterations 6
GAMG:  Solving for p, Initial residual = 0.243337, Final residual = 0.00142335, No Iterations 4
time step continuity errors : sum local = 5.78624e-05, global = -3.35874e-07, cumulative = -0.000689176
GAMG:  Solving for p, Initial residual = 0.165379, Final residual = 0.000982522, No Iterations 4
time step continuity errors : sum local = 3.97825e-05, global = 1.11724e-08, cumulative = -0.000689165
GAMG:  Solving for p, Initial residual = 0.167527, Final residual = 0.000986351, No Iterations 4
time step continuity errors : sum local = 4.00061e-05, global = 4.7258e-09, cumulative = -0.00068916
GAMG:  Solving for p, Initial residual = 0.167142, Final residual = 8.35726e-07, No Iterations 19
time step continuity errors : sum local = 3.39101e-08, global = 2.06581e-12, cumulative = -0.00068916
DILUPBiCGStab:  Solving for omega, Initial residual = 0.0132845, Final residual = 4.45867e-07, No Iterations 3
bounding omega, min: -0.0349058 max: 57.157 average: 2.71541
DILUPBiCGStab:  Solving for k, Initial residual = 0.0280643, Final residual = 1.65323e-07, No Iterations 3
bounding k, min: -0.000862641 max: 0.0254391 average: 0.00178909
PIMPLE: not converged within 2 iterations
ExecutionTime = 293.66 s  ClockTime = 295 s

Courant Number mean: 2.78681 max: 138.98
Time = 998


Solving3-D cloud kinematicCloud
Cloud: kinematicCloud
    Current number of parcels       = 3402
    Current mass in system          = 0.000101039
    Linear momentum                 = (2.6e-07 -3.82578e-08 -5.09883e-06)
   |Linear momentum|                = 5.1056e-06
    Linear kinetic energy           = 2.15227e-07
    Average particle per parcel     = 1
    Injector p1:
      - parcels added               = 500
      - mass introduced             = 8.67211e-05
    Injector p2:
      - parcels added               = 500
      - mass introduced             = 1.08402e-05
    Injector p3:
      - parcels added               = 500
      - mass introduced             = 2.34147e-06
    Injector p4:
      - parcels added               = 500
      - mass introduced             = 9.23406e-07
    Injector p5:
      - parcels added               = 500
      - mass introduced             = 2.92684e-07
    Injector p6:
      - parcels added               = 500
      - mass introduced             = 1.03286e-07
    Injector p7:
      - parcels added               = 500
      - mass introduced             = 2.40363e-08
    Injector p8:
      - parcels added               = 500
      - mass introduced             = 6.61032e-09
    Injector p9:
      - parcels added               = 500
      - mass introduced             = 1.35502e-09
    Injector p10:
      - parcels added               = 500
      - mass introduced             = 4.89085e-10
    Injector p11:
      - parcels added               = 500
      - mass introduced             = 1.81868e-10
    Injector p12:
      - parcels added               = 500
      - mass introduced             = 5.51595e-11
    Injector p13:
      - parcels added               = 500
      - mass introduced             = 2.49321e-11
    Injector p14:
      - parcels added               = 500
      - mass introduced             = 1.52421e-12
    Surface film:
      - parcels absorbed            = 0
      - mass absorbed               = 0
      - parcels ejected             = 0
    Parcel fate: system (number, mass)
      - escape                      = 3598, 2.15798e-07
    Parcel fate: patch free_surface (number, mass)
      - escape                      = 0, 0
      - stick                       = 0, 0
    Parcel fate: patch walls (number, mass)
      - escape                      = 0, 0
      - stick                       = 0, 0
    Parcel fate: patch inlet (number, mass)
      - escape                      = 0, 0
      - stick                       = 0, 0
    Parcel fate: patch outlet (number, mass)
      - escape                      = 3598, 2.15798e-07
      - stick                       = 0, 0

PIMPLE: iteration 1
DILUPBiCGStab:  Solving for Ux, Initial residual = 0.00817086, Final residual = 4.84723e-05, No Iterations 1
DILUPBiCGStab:  Solving for Uy, Initial residual = 0.0476832, Final residual = 0.000301381, No Iterations 1
DILUPBiCGStab:  Solving for Uz, Initial residual = 0.044631, Final residual = 0.000268386, No Iterations 1
GAMG:  Solving for p, Initial residual = 0.247645, Final residual = 0.00147512, No Iterations 4
time step continuity errors : sum local = 5.94401e-05, global = -4.825e-08, cumulative = -0.000689208
GAMG:  Solving for p, Initial residual = 0.168588, Final residual = 0.00101253, No Iterations 4
time step continuity errors : sum local = 4.04941e-05, global = -6.18281e-08, cumulative = -0.00068927
GAMG:  Solving for p, Initial residual = 0.170766, Final residual = 0.00101474, No Iterations 4
time step continuity errors : sum local = 4.0653e-05, global = 8.27186e-08, cumulative = -0.000689187
GAMG:  Solving for p, Initial residual = 0.17035, Final residual = 6.40348e-07, No Iterations 19
time step continuity errors : sum local = 2.56692e-08, global = 1.14324e-12, cumulative = -0.000689187
PIMPLE: iteration 2
DILUPBiCG:  Solving for Ux, Initial residual = 0.00636315, Final residual = 1.64524e-07, No Iterations 6
DILUPBiCG:  Solving for Uy, Initial residual = 0.0361513, Final residual = 3.1738e-07, No Iterations 6
DILUPBiCG:  Solving for Uz, Initial residual = 0.0331418, Final residual = 2.60166e-07, No Iterations 6
GAMG:  Solving for p, Initial residual = 0.241805, Final residual = 0.00146347, No Iterations 4
time step continuity errors : sum local = 5.92596e-05, global = -4.0351e-07, cumulative = -0.000689591
GAMG:  Solving for p, Initial residual = 0.164116, Final residual = 0.00100144, No Iterations 4
time step continuity errors : sum local = 4.04081e-05, global = -2.55258e-07, cumulative = -0.000689846
GAMG:  Solving for p, Initial residual = 0.166245, Final residual = 0.000996732, No Iterations 4
time step continuity errors : sum local = 4.02834e-05, global = -2.41055e-07, cumulative = -0.000690087
GAMG:  Solving for p, Initial residual = 0.165887, Final residual = 9.5455e-07, No Iterations 19
time step continuity errors : sum local = 3.85945e-08, global = 2.50134e-12, cumulative = -0.000690087
DILUPBiCGStab:  Solving for omega, Initial residual = 0.0131308, Final residual = 4.35636e-07, No Iterations 3
bounding omega, min: -0.159662 max: 53.922 average: 2.71178
DILUPBiCGStab:  Solving for k, Initial residual = 0.0276749, Final residual = 1.67728e-07, No Iterations 3
bounding k, min: -0.000632081 max: 0.0253971 average: 0.00178192
PIMPLE: not converged within 2 iterations
ExecutionTime = 294.23 s  ClockTime = 295 s

Courant Number mean: 2.78516 max: 139.055
Time = 999


Solving3-D cloud kinematicCloud
Cloud: kinematicCloud
    Current number of parcels       = 3402
    Current mass in system          = 0.000101039
    Linear momentum                 = (2.27924e-07 -3.0255e-08 -5.77583e-06)
   |Linear momentum|                = 5.7804e-06
    Linear kinetic energy           = 2.37434e-07
    Average particle per parcel     = 1
    Injector p1:
      - parcels added               = 500
      - mass introduced             = 8.67211e-05
    Injector p2:
      - parcels added               = 500
      - mass introduced             = 1.08402e-05
    Injector p3:
      - parcels added               = 500
      - mass introduced             = 2.34147e-06
    Injector p4:
      - parcels added               = 500
      - mass introduced             = 9.23406e-07
    Injector p5:
      - parcels added               = 500
      - mass introduced             = 2.92684e-07
    Injector p6:
      - parcels added               = 500
      - mass introduced             = 1.03286e-07
    Injector p7:
      - parcels added               = 500
      - mass introduced             = 2.40363e-08
    Injector p8:
      - parcels added               = 500
      - mass introduced             = 6.61032e-09
    Injector p9:
      - parcels added               = 500
      - mass introduced             = 1.35502e-09
    Injector p10:
      - parcels added               = 500
      - mass introduced             = 4.89085e-10
    Injector p11:
      - parcels added               = 500
      - mass introduced             = 1.81868e-10
    Injector p12:
      - parcels added               = 500
      - mass introduced             = 5.51595e-11
    Injector p13:
      - parcels added               = 500
      - mass introduced             = 2.49321e-11
    Injector p14:
      - parcels added               = 500
      - mass introduced             = 1.52421e-12
    Surface film:
      - parcels absorbed            = 0
      - mass absorbed               = 0
      - parcels ejected             = 0
    Parcel fate: system (number, mass)
      - escape                      = 3598, 2.15798e-07
    Parcel fate: patch free_surface (number, mass)
      - escape                      = 0, 0
      - stick                       = 0, 0
    Parcel fate: patch walls (number, mass)
      - escape                      = 0, 0
      - stick                       = 0, 0
    Parcel fate: patch inlet (number, mass)
      - escape                      = 0, 0
      - stick                       = 0, 0
    Parcel fate: patch outlet (number, mass)
      - escape                      = 3598, 2.15798e-07
      - stick                       = 0, 0

PIMPLE: iteration 1
DILUPBiCGStab:  Solving for Ux, Initial residual = 0.00807363, Final residual = 4.8636e-05, No Iterations 1
DILUPBiCGStab:  Solving for Uy, Initial residual = 0.0475809, Final residual = 0.00031438, No Iterations 1
DILUPBiCGStab:  Solving for Uz, Initial residual = 0.0441352, Final residual = 0.000281791, No Iterations 1
GAMG:  Solving for p, Initial residual = 0.245474, Final residual = 0.00150702, No Iterations 4
time step continuity errors : sum local = 6.04291e-05, global = -9.01706e-08, cumulative = -0.000690177
GAMG:  Solving for p, Initial residual = 0.166961, Final residual = 0.001036, No Iterations 4
time step continuity errors : sum local = 4.12124e-05, global = 9.31598e-08, cumulative = -0.000690084
GAMG:  Solving for p, Initial residual = 0.169058, Final residual = 0.00103178, No Iterations 4
time step continuity errors : sum local = 4.11172e-05, global = 8.7351e-08, cumulative = -0.000689997
GAMG:  Solving for p, Initial residual = 0.168688, Final residual = 7.95021e-07, No Iterations 19
time step continuity errors : sum local = 3.16988e-08, global = 3.7491e-12, cumulative = -0.000689997
PIMPLE: iteration 2
DILUPBiCG:  Solving for Ux, Initial residual = 0.00626238, Final residual = 8.48326e-07, No Iterations 5
DILUPBiCG:  Solving for Uy, Initial residual = 0.0358974, Final residual = 3.03322e-07, No Iterations 6
DILUPBiCG:  Solving for Uz, Initial residual = 0.0325105, Final residual = 2.31729e-07, No Iterations 6
GAMG:  Solving for p, Initial residual = 0.238902, Final residual = 0.00146623, No Iterations 4
time step continuity errors : sum local = 5.90559e-05, global = -7.67956e-08, cumulative = -0.000690073
GAMG:  Solving for p, Initial residual = 0.161957, Final residual = 0.000992469, No Iterations 4
time step continuity errors : sum local = 3.98633e-05, global = -2.18037e-07, cumulative = -0.000690292
GAMG:  Solving for p, Initial residual = 0.164072, Final residual = 0.000983562, No Iterations 4
time step continuity errors : sum local = 3.95578e-05, global = -2.29101e-07, cumulative = -0.000690521
GAMG:  Solving for p, Initial residual = 0.163727, Final residual = 7.51146e-07, No Iterations 19
time step continuity errors : sum local = 3.02218e-08, global = 6.98561e-13, cumulative = -0.000690521
DILUPBiCGStab:  Solving for omega, Initial residual = 0.0128901, Final residual = 3.19012e-07, No Iterations 3
bounding omega, min: -0.0659313 max: 60.1307 average: 2.70861
DILUPBiCGStab:  Solving for k, Initial residual = 0.0272366, Final residual = 1.60737e-07, No Iterations 3
bounding k, min: -0.00221365 max: 0.0276478 average: 0.00177491
PIMPLE: not converged within 2 iterations
ExecutionTime = 294.81 s  ClockTime = 296 s

Courant Number mean: 2.78375 max: 139.087
Time = 1000


Solving3-D cloud kinematicCloud
Cloud: kinematicCloud
    Current number of parcels       = 3402
    Current mass in system          = 0.000101039
    Linear momentum                 = (2.28994e-07 -2.48588e-08 -5.32296e-06)
   |Linear momentum|                = 5.32794e-06
    Linear kinetic energy           = 2.22872e-07
    Average particle per parcel     = 1
    Injector p1:
      - parcels added               = 500
      - mass introduced             = 8.67211e-05
    Injector p2:
      - parcels added               = 500
      - mass introduced             = 1.08402e-05
    Injector p3:
      - parcels added               = 500
      - mass introduced             = 2.34147e-06
    Injector p4:
      - parcels added               = 500
      - mass introduced             = 9.23406e-07
    Injector p5:
      - parcels added               = 500
      - mass introduced             = 2.92684e-07
    Injector p6:
      - parcels added               = 500
      - mass introduced             = 1.03286e-07
    Injector p7:
      - parcels added               = 500
      - mass introduced             = 2.40363e-08
    Injector p8:
      - parcels added               = 500
      - mass introduced             = 6.61032e-09
    Injector p9:
      - parcels added               = 500
      - mass introduced             = 1.35502e-09
    Injector p10:
      - parcels added               = 500
      - mass introduced             = 4.89085e-10
    Injector p11:
      - parcels added               = 500
      - mass introduced             = 1.81868e-10
    Injector p12:
      - parcels added               = 500
      - mass introduced             = 5.51595e-11
    Injector p13:
      - parcels added               = 500
      - mass introduced             = 2.49321e-11
    Injector p14:
      - parcels added               = 500
      - mass introduced             = 1.52421e-12
    Surface film:
      - parcels absorbed            = 0
      - mass absorbed               = 0
      - parcels ejected             = 0
    Parcel fate: system (number, mass)
      - escape                      = 3598, 2.15798e-07
    Parcel fate: patch free_surface (number, mass)
      - escape                      = 0, 0
      - stick                       = 0, 0
    Parcel fate: patch walls (number, mass)
      - escape                      = 0, 0
      - stick                       = 0, 0
    Parcel fate: patch inlet (number, mass)
      - escape                      = 0, 0
      - stick                       = 0, 0
    Parcel fate: patch outlet (number, mass)
      - escape                      = 3598, 2.15798e-07
      - stick                       = 0, 0

PIMPLE: iteration 1
DILUPBiCGStab:  Solving for Ux, Initial residual = 0.00796212, Final residual = 4.97583e-05, No Iterations 1
DILUPBiCGStab:  Solving for Uy, Initial residual = 0.0474076, Final residual = 0.00033022, No Iterations 1
DILUPBiCGStab:  Solving for Uz, Initial residual = 0.0434134, Final residual = 0.000284195, No Iterations 1
GAMG:  Solving for p, Initial residual = 0.24079, Final residual = 0.00146469, No Iterations 4
time step continuity errors : sum local = 5.8488e-05, global = -1.47606e-07, cumulative = -0.000690668
GAMG:  Solving for p, Initial residual = 0.163498, Final residual = 0.00100581, No Iterations 4
time step continuity errors : sum local = 3.98689e-05, global = 8.0235e-09, cumulative = -0.00069066
GAMG:  Solving for p, Initial residual = 0.165552, Final residual = 0.000997873, No Iterations 4
time step continuity errors : sum local = 3.962e-05, global = 1.61134e-09, cumulative = -0.000690659
GAMG:  Solving for p, Initial residual = 0.165226, Final residual = 5.25465e-07, No Iterations 18
time step continuity errors : sum local = 2.08735e-08, global = -3.92868e-12, cumulative = -0.000690659
PIMPLE: iteration 2
DILUPBiCG:  Solving for Ux, Initial residual = 0.00616716, Final residual = 4.3181e-07, No Iterations 5
DILUPBiCG:  Solving for Uy, Initial residual = 0.0357318, Final residual = 2.93153e-07, No Iterations 6
DILUPBiCG:  Solving for Uz, Initial residual = 0.0318038, Final residual = 2.10458e-07, No Iterations 6
GAMG:  Solving for p, Initial residual = 0.234824, Final residual = 0.00151931, No Iterations 4
time step continuity errors : sum local = 6.10738e-05, global = 8.83782e-09, cumulative = -0.00069065
GAMG:  Solving for p, Initial residual = 0.159043, Final residual = 0.00102928, No Iterations 4
time step continuity errors : sum local = 4.12635e-05, global = 2.31971e-08, cumulative = -0.000690627
GAMG:  Solving for p, Initial residual = 0.161008, Final residual = 0.00102213, No Iterations 4
time step continuity errors : sum local = 4.10326e-05, global = 1.9366e-08, cumulative = -0.000690607
GAMG:  Solving for p, Initial residual = 0.160732, Final residual = 9.58228e-07, No Iterations 17
time step continuity errors : sum local = 3.84807e-08, global = 2.45217e-12, cumulative = -0.000690607
DILUPBiCGStab:  Solving for omega, Initial residual = 0.0126771, Final residual = 3.3134e-07, No Iterations 3
bounding omega, min: -0.00636429 max: 57.2447 average: 2.70556
DILUPBiCGStab:  Solving for k, Initial residual = 0.0267189, Final residual = 1.67909e-07, No Iterations 3
bounding k, min: -0.000544161 max: 0.0290152 average: 0.00176847
PIMPLE: not converged within 2 iterations
ExecutionTime = 295.44 s  ClockTime = 296 s

End

Finalising parallel run
