/*---------------------------------------------------------------------------*\
| =========                 |                                                 |
| \\      /  F ield         | OpenFOAM: The Open Source CFD Toolbox           |
|  \\    /   O peration     | Version:  2312                                  |
|   \\  /    A nd           | Website:  www.openfoam.com                      |
|    \\/     M anipulation  |                                                 |
\*---------------------------------------------------------------------------*/
Build  : _e651d635-20240208 OPENFOAM=2312 patch=240220 version=2312
Arch   : "LSB;label=32;scalar=64"
Exec   : simpleFoam -parallel
Date   : Sep 15 2025
Time   : 12:56:56
Host   : work
PID    : 395744
I/O    : uncollated
Case   : /home/bm424/Projects/sandTrapShapeOpt/sandTrapCaseDir
nProcs : 10
Hosts  :
(
    (work 10)
)
Pstream initialized with:
    floatTransfer      : false
    nProcsSimpleSum    : 0
    nonBlockingExchange: 0 (tuning: 0)
    exchange algorithm : 0
    commsType          : nonBlocking
    polling iterations : 0
trapFpe: Floating point exception trapping enabled (FOAM_SIGFPE).
fileModificationChecking : Monitoring run-time modified files using timeStampMaster (fileModificationSkew 5, maxFileModificationPolls 20)
allowSystemOperations : Allowing user-supplied system call operations

// * * * * * * * * * * * * * * * * * * * * * * * * * * * * * * * * * * * * * //
Create time

Create mesh for time = 0


SIMPLE: convergence criteria
    field p	 tolerance 1e-05
    field U	 tolerance 1e-05
    field "(k|epsilon|omega|R)"	 tolerance 1e-05

Reading field p

Reading field U

Reading/calculating face flux field phi

Selecting incompressible transport model Newtonian
Selecting turbulence model type RAS
Selecting RAS turbulence model kOmegaSST
Selecting patchDistMethod meshWave
RAS
{
    RASModel        kOmegaSST;
    turbulence      on;
    printCoeffs     on;
    alphaK1         0.85;
    alphaK2         1;
    alphaOmega1     0.5;
    alphaOmega2     0.856;
    gamma1          0.555556;
    gamma2          0.44;
    beta1           0.075;
    beta2           0.0828;
    betaStar        0.09;
    a1              0.31;
    b1              1;
    c1              10;
    F3              false;
    decayControl    false;
    kInf            0;
    omegaInf        0;
}

No MRF models present

No finite volume options present

Starting time loop

Time = 1

DILUPBiCGStab:  Solving for Ux, Initial residual = 1, Final residual = 0.00240218, No Iterations 2
DILUPBiCGStab:  Solving for Uy, Initial residual = 1, Final residual = 0.00249549, No Iterations 2
DILUPBiCGStab:  Solving for Uz, Initial residual = 1, Final residual = 0.00471961, No Iterations 2
GAMG:  Solving for p, Initial residual = 1, Final residual = 0.00824865, No Iterations 6
time step continuity errors : sum local = 0.00570131, global = 5.57194e-05, cumulative = 5.57194e-05
DILUPBiCGStab:  Solving for omega, Initial residual = 0.231831, Final residual = 4.97207e-07, No Iterations 3
DILUPBiCGStab:  Solving for k, Initial residual = 1, Final residual = 4.15188e-06, No Iterations 3
ExecutionTime = 0.33 s  ClockTime = 1 s

Time = 2

DILUPBiCGStab:  Solving for Ux, Initial residual = 0.107428, Final residual = 0.000218192, No Iterations 1
DILUPBiCGStab:  Solving for Uy, Initial residual = 0.0973369, Final residual = 0.000185885, No Iterations 1
DILUPBiCGStab:  Solving for Uz, Initial residual = 0.167648, Final residual = 0.000309928, No Iterations 1
GAMG:  Solving for p, Initial residual = 0.770769, Final residual = 0.0032908, No Iterations 8
time step continuity errors : sum local = 0.00260809, global = -8.36633e-06, cumulative = 4.73531e-05
DILUPBiCGStab:  Solving for omega, Initial residual = 0.278424, Final residual = 3.27472e-08, No Iterations 4
DILUPBiCGStab:  Solving for k, Initial residual = 0.34035, Final residual = 2.42549e-07, No Iterations 4
ExecutionTime = 0.46 s  ClockTime = 1 s

Time = 3

DILUPBiCGStab:  Solving for Ux, Initial residual = 0.185253, Final residual = 0.000263962, No Iterations 1
DILUPBiCGStab:  Solving for Uy, Initial residual = 0.169585, Final residual = 0.000306773, No Iterations 1
DILUPBiCGStab:  Solving for Uz, Initial residual = 0.203743, Final residual = 0.000330192, No Iterations 1
GAMG:  Solving for p, Initial residual = 0.477298, Final residual = 0.00321958, No Iterations 5
time step continuity errors : sum local = 0.00325121, global = -7.95617e-05, cumulative = -3.22086e-05
DILUPBiCGStab:  Solving for omega, Initial residual = 0.134095, Final residual = 2.93804e-07, No Iterations 3
DILUPBiCGStab:  Solving for k, Initial residual = 0.256889, Final residual = 2.8473e-06, No Iterations 3
ExecutionTime = 0.59 s  ClockTime = 1 s

Time = 4

DILUPBiCGStab:  Solving for Ux, Initial residual = 0.187, Final residual = 0.000253824, No Iterations 1
DILUPBiCGStab:  Solving for Uy, Initial residual = 0.173263, Final residual = 0.0002311, No Iterations 1
DILUPBiCGStab:  Solving for Uz, Initial residual = 0.181674, Final residual = 0.000260977, No Iterations 1
GAMG:  Solving for p, Initial residual = 0.346602, Final residual = 0.00128613, No Iterations 7
time step continuity errors : sum local = 0.00132216, global = -2.24587e-06, cumulative = -3.44545e-05
DILUPBiCGStab:  Solving for omega, Initial residual = 0.0946907, Final residual = 1.21481e-07, No Iterations 3
DILUPBiCGStab:  Solving for k, Initial residual = 0.259224, Final residual = 7.86809e-06, No Iterations 3
ExecutionTime = 0.72 s  ClockTime = 1 s

Time = 5

DILUPBiCGStab:  Solving for Ux, Initial residual = 0.201064, Final residual = 0.00023233, No Iterations 1
DILUPBiCGStab:  Solving for Uy, Initial residual = 0.161838, Final residual = 0.000205068, No Iterations 1
DILUPBiCGStab:  Solving for Uz, Initial residual = 0.16121, Final residual = 0.000187058, No Iterations 1
GAMG:  Solving for p, Initial residual = 0.338622, Final residual = 0.0029379, No Iterations 8
time step continuity errors : sum local = 0.00245655, global = 2.12481e-05, cumulative = -1.32064e-05
DILUPBiCGStab:  Solving for omega, Initial residual = 0.0967739, Final residual = 9.93235e-08, No Iterations 3
DILUPBiCGStab:  Solving for k, Initial residual = 0.290596, Final residual = 1.09015e-06, No Iterations 3
ExecutionTime = 0.84 s  ClockTime = 1 s

Time = 6

DILUPBiCGStab:  Solving for Ux, Initial residual = 0.202181, Final residual = 0.000252155, No Iterations 1
DILUPBiCGStab:  Solving for Uy, Initial residual = 0.139043, Final residual = 0.000185004, No Iterations 1
DILUPBiCGStab:  Solving for Uz, Initial residual = 0.147445, Final residual = 0.000189462, No Iterations 1
GAMG:  Solving for p, Initial residual = 0.449083, Final residual = 0.00403241, No Iterations 6
time step continuity errors : sum local = 0.00316618, global = 5.04746e-05, cumulative = 3.72682e-05
DILUPBiCGStab:  Solving for omega, Initial residual = 0.117234, Final residual = 1.70721e-07, No Iterations 3
DILUPBiCGStab:  Solving for k, Initial residual = 0.346459, Final residual = 2.31893e-06, No Iterations 3
ExecutionTime = 0.96 s  ClockTime = 1 s

Time = 7

DILUPBiCGStab:  Solving for Ux, Initial residual = 0.183917, Final residual = 0.000244514, No Iterations 1
DILUPBiCGStab:  Solving for Uy, Initial residual = 0.137776, Final residual = 0.000172523, No Iterations 1
DILUPBiCGStab:  Solving for Uz, Initial residual = 0.149732, Final residual = 0.00019382, No Iterations 1
GAMG:  Solving for p, Initial residual = 0.398048, Final residual = 0.00305592, No Iterations 5
time step continuity errors : sum local = 0.00319298, global = -0.000151221, cumulative = -0.000113953
DILUPBiCGStab:  Solving for omega, Initial residual = 0.136591, Final residual = 1.70303e-07, No Iterations 3
DILUPBiCGStab:  Solving for k, Initial residual = 0.381041, Final residual = 5.57745e-06, No Iterations 3
ExecutionTime = 1.06 s  ClockTime = 2 s

Time = 8

DILUPBiCGStab:  Solving for Ux, Initial residual = 0.153447, Final residual = 0.00022889, No Iterations 1
DILUPBiCGStab:  Solving for Uy, Initial residual = 0.14526, Final residual = 0.000177415, No Iterations 1
DILUPBiCGStab:  Solving for Uz, Initial residual = 0.14327, Final residual = 0.000212097, No Iterations 1
GAMG:  Solving for p, Initial residual = 0.364162, Final residual = 0.0020441, No Iterations 5
time step continuity errors : sum local = 0.00254357, global = -1.0477e-05, cumulative = -0.00012443
DILUPBiCGStab:  Solving for omega, Initial residual = 0.145814, Final residual = 9.99301e-08, No Iterations 3
DILUPBiCGStab:  Solving for k, Initial residual = 0.386694, Final residual = 6.86528e-06, No Iterations 3
ExecutionTime = 1.17 s  ClockTime = 2 s

Time = 9

DILUPBiCGStab:  Solving for Ux, Initial residual = 0.135881, Final residual = 0.000202995, No Iterations 1
DILUPBiCGStab:  Solving for Uy, Initial residual = 0.157032, Final residual = 0.000221295, No Iterations 1
DILUPBiCGStab:  Solving for Uz, Initial residual = 0.133958, Final residual = 0.000220344, No Iterations 1
GAMG:  Solving for p, Initial residual = 0.35452, Final residual = 0.00279722, No Iterations 5
time step continuity errors : sum local = 0.00374864, global = -7.10767e-05, cumulative = -0.000195506
DILUPBiCGStab:  Solving for omega, Initial residual = 0.14427, Final residual = 2.70869e-07, No Iterations 3
DILUPBiCGStab:  Solving for k, Initial residual = 0.358959, Final residual = 1.92217e-06, No Iterations 3
ExecutionTime = 1.28 s  ClockTime = 2 s

Time = 10

DILUPBiCGStab:  Solving for Ux, Initial residual = 0.130473, Final residual = 0.000202663, No Iterations 1
DILUPBiCGStab:  Solving for Uy, Initial residual = 0.159912, Final residual = 0.000293286, No Iterations 1
DILUPBiCGStab:  Solving for Uz, Initial residual = 0.13028, Final residual = 0.000175037, No Iterations 1
GAMG:  Solving for p, Initial residual = 0.346358, Final residual = 0.00212181, No Iterations 5
time step continuity errors : sum local = 0.00286363, global = -8.17212e-05, cumulative = -0.000277228
DILUPBiCGStab:  Solving for omega, Initial residual = 0.13214, Final residual = 4.62058e-07, No Iterations 3
DILUPBiCGStab:  Solving for k, Initial residual = 0.305981, Final residual = 1.88232e-06, No Iterations 3
ExecutionTime = 1.39 s  ClockTime = 2 s

Time = 11

DILUPBiCGStab:  Solving for Ux, Initial residual = 0.12781, Final residual = 0.000178747, No Iterations 1
DILUPBiCGStab:  Solving for Uy, Initial residual = 0.155596, Final residual = 0.000207983, No Iterations 1
DILUPBiCGStab:  Solving for Uz, Initial residual = 0.144101, Final residual = 0.000199277, No Iterations 1
GAMG:  Solving for p, Initial residual = 0.347957, Final residual = 0.00140975, No Iterations 5
time step continuity errors : sum local = 0.00164176, global = -3.77874e-05, cumulative = -0.000315015
DILUPBiCGStab:  Solving for omega, Initial residual = 0.129267, Final residual = 1.42954e-07, No Iterations 3
DILUPBiCGStab:  Solving for k, Initial residual = 0.310325, Final residual = 1.98275e-06, No Iterations 3
ExecutionTime = 1.5 s  ClockTime = 2 s

Time = 12

DILUPBiCGStab:  Solving for Ux, Initial residual = 0.124994, Final residual = 0.000185113, No Iterations 1
DILUPBiCGStab:  Solving for Uy, Initial residual = 0.154325, Final residual = 0.000220549, No Iterations 1
DILUPBiCGStab:  Solving for Uz, Initial residual = 0.148771, Final residual = 0.000214649, No Iterations 1
GAMG:  Solving for p, Initial residual = 0.405342, Final residual = 0.002574, No Iterations 4
time step continuity errors : sum local = 0.0027571, global = -3.12728e-05, cumulative = -0.000346288
DILUPBiCGStab:  Solving for omega, Initial residual = 0.119318, Final residual = 2.47797e-09, No Iterations 4
DILUPBiCGStab:  Solving for k, Initial residual = 0.302145, Final residual = 6.5614e-06, No Iterations 3
ExecutionTime = 1.61 s  ClockTime = 2 s

Time = 13

DILUPBiCGStab:  Solving for Ux, Initial residual = 0.120993, Final residual = 0.000182419, No Iterations 1
DILUPBiCGStab:  Solving for Uy, Initial residual = 0.148107, Final residual = 0.000228438, No Iterations 1
DILUPBiCGStab:  Solving for Uz, Initial residual = 0.148838, Final residual = 0.000206884, No Iterations 1
GAMG:  Solving for p, Initial residual = 0.432019, Final residual = 0.00239688, No Iterations 4
time step continuity errors : sum local = 0.00236209, global = -2.14661e-06, cumulative = -0.000348434
DILUPBiCGStab:  Solving for omega, Initial residual = 0.10562, Final residual = 1.29773e-07, No Iterations 3
DILUPBiCGStab:  Solving for k, Initial residual = 0.274967, Final residual = 7.84006e-06, No Iterations 2
ExecutionTime = 1.71 s  ClockTime = 2 s

Time = 14

DILUPBiCGStab:  Solving for Ux, Initial residual = 0.111298, Final residual = 0.000168715, No Iterations 1
DILUPBiCGStab:  Solving for Uy, Initial residual = 0.148604, Final residual = 0.000226867, No Iterations 1
DILUPBiCGStab:  Solving for Uz, Initial residual = 0.14841, Final residual = 0.000204646, No Iterations 1
GAMG:  Solving for p, Initial residual = 0.451957, Final residual = 0.00192642, No Iterations 4
time step continuity errors : sum local = 0.00183183, global = 6.6506e-05, cumulative = -0.000281929
DILUPBiCGStab:  Solving for omega, Initial residual = 0.0855044, Final residual = 6.46466e-07, No Iterations 2
DILUPBiCGStab:  Solving for k, Initial residual = 0.238101, Final residual = 4.77283e-06, No Iterations 2
ExecutionTime = 1.82 s  ClockTime = 2 s

Time = 15

DILUPBiCGStab:  Solving for Ux, Initial residual = 0.10478, Final residual = 0.000157218, No Iterations 1
DILUPBiCGStab:  Solving for Uy, Initial residual = 0.152975, Final residual = 0.000213854, No Iterations 1
DILUPBiCGStab:  Solving for Uz, Initial residual = 0.140615, Final residual = 0.000189896, No Iterations 1
GAMG:  Solving for p, Initial residual = 0.44664, Final residual = 0.00443573, No Iterations 3
time step continuity errors : sum local = 0.00410939, global = 0.000200273, cumulative = -8.16559e-05
DILUPBiCGStab:  Solving for omega, Initial residual = 0.0596645, Final residual = 3.72765e-07, No Iterations 2
DILUPBiCGStab:  Solving for k, Initial residual = 0.197077, Final residual = 3.46833e-06, No Iterations 2
ExecutionTime = 1.92 s  ClockTime = 2 s

Time = 16

DILUPBiCGStab:  Solving for Ux, Initial residual = 0.0976962, Final residual = 0.000134442, No Iterations 1
DILUPBiCGStab:  Solving for Uy, Initial residual = 0.157688, Final residual = 0.000237011, No Iterations 1
DILUPBiCGStab:  Solving for Uz, Initial residual = 0.123515, Final residual = 0.000173187, No Iterations 1
GAMG:  Solving for p, Initial residual = 0.429228, Final residual = 0.00360218, No Iterations 3
time step continuity errors : sum local = 0.00323925, global = 0.000302548, cumulative = 0.000220892
DILUPBiCGStab:  Solving for omega, Initial residual = 0.0448666, Final residual = 2.85301e-07, No Iterations 2
DILUPBiCGStab:  Solving for k, Initial residual = 0.169059, Final residual = 3.02738e-06, No Iterations 2
ExecutionTime = 2.02 s  ClockTime = 3 s

Time = 17

DILUPBiCGStab:  Solving for Ux, Initial residual = 0.0952033, Final residual = 0.000136152, No Iterations 1
DILUPBiCGStab:  Solving for Uy, Initial residual = 0.161522, Final residual = 0.00026309, No Iterations 1
DILUPBiCGStab:  Solving for Uz, Initial residual = 0.120065, Final residual = 0.000149733, No Iterations 1
GAMG:  Solving for p, Initial residual = 0.422252, Final residual = 0.0034996, No Iterations 3
time step continuity errors : sum local = 0.00319369, global = 0.000281948, cumulative = 0.00050284
DILUPBiCGStab:  Solving for omega, Initial residual = 0.0397806, Final residual = 2.08417e-07, No Iterations 2
DILUPBiCGStab:  Solving for k, Initial residual = 0.144585, Final residual = 3.2208e-06, No Iterations 2
ExecutionTime = 2.13 s  ClockTime = 3 s

Time = 18

DILUPBiCGStab:  Solving for Ux, Initial residual = 0.0939791, Final residual = 0.00013392, No Iterations 1
DILUPBiCGStab:  Solving for Uy, Initial residual = 0.15673, Final residual = 0.000238935, No Iterations 1
DILUPBiCGStab:  Solving for Uz, Initial residual = 0.111435, Final residual = 0.000158069, No Iterations 1
GAMG:  Solving for p, Initial residual = 0.419001, Final residual = 0.00398737, No Iterations 3
time step continuity errors : sum local = 0.00375214, global = 0.000103338, cumulative = 0.000606178
DILUPBiCGStab:  Solving for omega, Initial residual = 0.0381106, Final residual = 1.91956e-07, No Iterations 2
DILUPBiCGStab:  Solving for k, Initial residual = 0.126498, Final residual = 2.08404e-06, No Iterations 2
ExecutionTime = 2.23 s  ClockTime = 3 s

Time = 19

DILUPBiCGStab:  Solving for Ux, Initial residual = 0.0941825, Final residual = 0.000137725, No Iterations 1
DILUPBiCGStab:  Solving for Uy, Initial residual = 0.149565, Final residual = 0.000217542, No Iterations 1
DILUPBiCGStab:  Solving for Uz, Initial residual = 0.108449, Final residual = 0.000166073, No Iterations 1
GAMG:  Solving for p, Initial residual = 0.388946, Final residual = 0.0018064, No Iterations 4
time step continuity errors : sum local = 0.00172951, global = 3.76563e-05, cumulative = 0.000643835
DILUPBiCGStab:  Solving for omega, Initial residual = 0.0349508, Final residual = 1.77722e-07, No Iterations 2
DILUPBiCGStab:  Solving for k, Initial residual = 0.111944, Final residual = 1.58347e-06, No Iterations 2
ExecutionTime = 2.33 s  ClockTime = 3 s

Time = 20

DILUPBiCGStab:  Solving for Ux, Initial residual = 0.0940359, Final residual = 0.000147544, No Iterations 1
DILUPBiCGStab:  Solving for Uy, Initial residual = 0.142901, Final residual = 0.000212595, No Iterations 1
DILUPBiCGStab:  Solving for Uz, Initial residual = 0.106502, Final residual = 0.00016188, No Iterations 1
GAMG:  Solving for p, Initial residual = 0.360029, Final residual = 0.00331299, No Iterations 3
time step continuity errors : sum local = 0.00317198, global = -1.85678e-06, cumulative = 0.000641978
DILUPBiCGStab:  Solving for omega, Initial residual = 0.0334531, Final residual = 1.72726e-07, No Iterations 2
DILUPBiCGStab:  Solving for k, Initial residual = 0.0994752, Final residual = 1.33065e-06, No Iterations 2
ExecutionTime = 2.43 s  ClockTime = 3 s

Time = 21

DILUPBiCGStab:  Solving for Ux, Initial residual = 0.0913734, Final residual = 0.000149461, No Iterations 1
DILUPBiCGStab:  Solving for Uy, Initial residual = 0.138231, Final residual = 0.000222613, No Iterations 1
DILUPBiCGStab:  Solving for Uz, Initial residual = 0.10024, Final residual = 0.000167095, No Iterations 1
GAMG:  Solving for p, Initial residual = 0.356137, Final residual = 0.00315799, No Iterations 3
time step continuity errors : sum local = 0.00297221, global = -2.50887e-05, cumulative = 0.000616889
DILUPBiCGStab:  Solving for omega, Initial residual = 0.0325477, Final residual = 2.24181e-07, No Iterations 2
DILUPBiCGStab:  Solving for k, Initial residual = 0.0919925, Final residual = 1.88542e-06, No Iterations 2
ExecutionTime = 2.53 s  ClockTime = 3 s

Time = 22

DILUPBiCGStab:  Solving for Ux, Initial residual = 0.085768, Final residual = 0.000135278, No Iterations 1
DILUPBiCGStab:  Solving for Uy, Initial residual = 0.129579, Final residual = 0.000240052, No Iterations 1
DILUPBiCGStab:  Solving for Uz, Initial residual = 0.100117, Final residual = 0.000175342, No Iterations 1
GAMG:  Solving for p, Initial residual = 0.358321, Final residual = 0.00311284, No Iterations 3
time step continuity errors : sum local = 0.00284179, global = -3.36467e-05, cumulative = 0.000583243
DILUPBiCGStab:  Solving for omega, Initial residual = 0.0309573, Final residual = 2.60879e-07, No Iterations 2
DILUPBiCGStab:  Solving for k, Initial residual = 0.0874401, Final residual = 5.46745e-06, No Iterations 2
ExecutionTime = 2.63 s  ClockTime = 3 s

Time = 23

DILUPBiCGStab:  Solving for Ux, Initial residual = 0.0787219, Final residual = 0.000121478, No Iterations 1
DILUPBiCGStab:  Solving for Uy, Initial residual = 0.120031, Final residual = 0.00022467, No Iterations 1
DILUPBiCGStab:  Solving for Uz, Initial residual = 0.104433, Final residual = 0.000180827, No Iterations 1
GAMG:  Solving for p, Initial residual = 0.359339, Final residual = 0.00262016, No Iterations 3
time step continuity errors : sum local = 0.00229192, global = -7.69021e-05, cumulative = 0.00050634
DILUPBiCGStab:  Solving for omega, Initial residual = 0.0292082, Final residual = 2.6105e-07, No Iterations 2
DILUPBiCGStab:  Solving for k, Initial residual = 0.0816188, Final residual = 3.66259e-06, No Iterations 2
ExecutionTime = 2.73 s  ClockTime = 3 s

Time = 24

DILUPBiCGStab:  Solving for Ux, Initial residual = 0.0711624, Final residual = 0.000112292, No Iterations 1
DILUPBiCGStab:  Solving for Uy, Initial residual = 0.113711, Final residual = 0.000204859, No Iterations 1
DILUPBiCGStab:  Solving for Uz, Initial residual = 0.110621, Final residual = 0.000191395, No Iterations 1
GAMG:  Solving for p, Initial residual = 0.362989, Final residual = 0.00237365, No Iterations 3
time step continuity errors : sum local = 0.00198045, global = -8.47825e-05, cumulative = 0.000421558
DILUPBiCGStab:  Solving for omega, Initial residual = 0.0269798, Final residual = 2.75103e-07, No Iterations 2
DILUPBiCGStab:  Solving for k, Initial residual = 0.0753894, Final residual = 1.59393e-06, No Iterations 2
ExecutionTime = 2.84 s  ClockTime = 3 s

Time = 25

DILUPBiCGStab:  Solving for Ux, Initial residual = 0.0649011, Final residual = 0.000104837, No Iterations 1
DILUPBiCGStab:  Solving for Uy, Initial residual = 0.11506, Final residual = 0.000208041, No Iterations 1
DILUPBiCGStab:  Solving for Uz, Initial residual = 0.116759, Final residual = 0.000197756, No Iterations 1
GAMG:  Solving for p, Initial residual = 0.339178, Final residual = 0.00266063, No Iterations 3
time step continuity errors : sum local = 0.0020878, global = -3.65866e-05, cumulative = 0.000384971
DILUPBiCGStab:  Solving for omega, Initial residual = 0.0251333, Final residual = 4.31362e-07, No Iterations 2
DILUPBiCGStab:  Solving for k, Initial residual = 0.0707738, Final residual = 1.30793e-06, No Iterations 2
ExecutionTime = 2.94 s  ClockTime = 3 s

Time = 26

DILUPBiCGStab:  Solving for Ux, Initial residual = 0.0600423, Final residual = 9.5364e-05, No Iterations 1
DILUPBiCGStab:  Solving for Uy, Initial residual = 0.116929, Final residual = 0.00021145, No Iterations 1
DILUPBiCGStab:  Solving for Uz, Initial residual = 0.115178, Final residual = 0.000200611, No Iterations 1
GAMG:  Solving for p, Initial residual = 0.326888, Final residual = 0.00290736, No Iterations 3
time step continuity errors : sum local = 0.00214414, global = -2.46465e-06, cumulative = 0.000382507
DILUPBiCGStab:  Solving for omega, Initial residual = 0.0230882, Final residual = 4.71707e-07, No Iterations 2
DILUPBiCGStab:  Solving for k, Initial residual = 0.0664667, Final residual = 1.35386e-06, No Iterations 2
ExecutionTime = 3.04 s  ClockTime = 4 s

Time = 27

DILUPBiCGStab:  Solving for Ux, Initial residual = 0.0555947, Final residual = 9.38018e-05, No Iterations 1
DILUPBiCGStab:  Solving for Uy, Initial residual = 0.117551, Final residual = 0.00022004, No Iterations 1
DILUPBiCGStab:  Solving for Uz, Initial residual = 0.112728, Final residual = 0.000216662, No Iterations 1
GAMG:  Solving for p, Initial residual = 0.317045, Final residual = 0.00293001, No Iterations 3
time step continuity errors : sum local = 0.00202949, global = -3.16917e-06, cumulative = 0.000379338
DILUPBiCGStab:  Solving for omega, Initial residual = 0.0215702, Final residual = 3.75738e-07, No Iterations 2
DILUPBiCGStab:  Solving for k, Initial residual = 0.0619601, Final residual = 1.44015e-06, No Iterations 2
ExecutionTime = 3.14 s  ClockTime = 4 s

Time = 28

DILUPBiCGStab:  Solving for Ux, Initial residual = 0.0520585, Final residual = 9.55914e-05, No Iterations 1
DILUPBiCGStab:  Solving for Uy, Initial residual = 0.1203, Final residual = 0.000226546, No Iterations 1
DILUPBiCGStab:  Solving for Uz, Initial residual = 0.110039, Final residual = 0.000226468, No Iterations 1
GAMG:  Solving for p, Initial residual = 0.31118, Final residual = 0.00289712, No Iterations 3
time step continuity errors : sum local = 0.00187735, global = -2.51566e-05, cumulative = 0.000354181
DILUPBiCGStab:  Solving for omega, Initial residual = 0.0205192, Final residual = 3.53024e-07, No Iterations 2
DILUPBiCGStab:  Solving for k, Initial residual = 0.0583807, Final residual = 1.46659e-06, No Iterations 2
ExecutionTime = 3.25 s  ClockTime = 4 s

Time = 29

DILUPBiCGStab:  Solving for Ux, Initial residual = 0.0495246, Final residual = 0.000100253, No Iterations 1
DILUPBiCGStab:  Solving for Uy, Initial residual = 0.124973, Final residual = 0.000245627, No Iterations 1
DILUPBiCGStab:  Solving for Uz, Initial residual = 0.108523, Final residual = 0.000231844, No Iterations 1
GAMG:  Solving for p, Initial residual = 0.299703, Final residual = 0.00278049, No Iterations 3
time step continuity errors : sum local = 0.00165135, global = -2.88415e-05, cumulative = 0.000325339
DILUPBiCGStab:  Solving for omega, Initial residual = 0.0193678, Final residual = 3.63674e-07, No Iterations 2
DILUPBiCGStab:  Solving for k, Initial residual = 0.055072, Final residual = 1.56352e-06, No Iterations 2
ExecutionTime = 3.38 s  ClockTime = 4 s

Time = 30

DILUPBiCGStab:  Solving for Ux, Initial residual = 0.047941, Final residual = 0.000102448, No Iterations 1
DILUPBiCGStab:  Solving for Uy, Initial residual = 0.128389, Final residual = 0.000263941, No Iterations 1
DILUPBiCGStab:  Solving for Uz, Initial residual = 0.107573, Final residual = 0.000232073, No Iterations 1
GAMG:  Solving for p, Initial residual = 0.292052, Final residual = 0.00216553, No Iterations 3
time step continuity errors : sum local = 0.00118428, global = -5.13272e-08, cumulative = 0.000325288
DILUPBiCGStab:  Solving for omega, Initial residual = 0.0182315, Final residual = 3.81622e-07, No Iterations 2
DILUPBiCGStab:  Solving for k, Initial residual = 0.0524624, Final residual = 1.642e-06, No Iterations 2
ExecutionTime = 3.48 s  ClockTime = 4 s

Time = 31

DILUPBiCGStab:  Solving for Ux, Initial residual = 0.0470742, Final residual = 0.000104636, No Iterations 1
DILUPBiCGStab:  Solving for Uy, Initial residual = 0.131926, Final residual = 0.000275969, No Iterations 1
DILUPBiCGStab:  Solving for Uz, Initial residual = 0.103951, Final residual = 0.000230836, No Iterations 1
GAMG:  Solving for p, Initial residual = 0.300233, Final residual = 0.00140581, No Iterations 3
time step continuity errors : sum local = 0.000716217, global = 7.71922e-06, cumulative = 0.000333007
DILUPBiCGStab:  Solving for omega, Initial residual = 0.0169272, Final residual = 4.07977e-07, No Iterations 2
DILUPBiCGStab:  Solving for k, Initial residual = 0.0500919, Final residual = 1.73487e-06, No Iterations 2
ExecutionTime = 3.59 s  ClockTime = 4 s

Time = 32

DILUPBiCGStab:  Solving for Ux, Initial residual = 0.0450028, Final residual = 0.000109392, No Iterations 1
DILUPBiCGStab:  Solving for Uy, Initial residual = 0.132166, Final residual = 0.000300895, No Iterations 1
DILUPBiCGStab:  Solving for Uz, Initial residual = 0.0963744, Final residual = 0.000223274, No Iterations 1
GAMG:  Solving for p, Initial residual = 0.302591, Final residual = 0.00122017, No Iterations 3
time step continuity errors : sum local = 0.000582767, global = -7.61992e-06, cumulative = 0.000325387
DILUPBiCGStab:  Solving for omega, Initial residual = 0.0157488, Final residual = 4.31553e-07, No Iterations 2
DILUPBiCGStab:  Solving for k, Initial residual = 0.0478891, Final residual = 1.79689e-06, No Iterations 2
bounding k, min: -1.03308e-09 max: 40.1969 average: 0.174878
ExecutionTime = 3.71 s  ClockTime = 4 s

Time = 33

DILUPBiCGStab:  Solving for Ux, Initial residual = 0.0432544, Final residual = 0.000112222, No Iterations 1
DILUPBiCGStab:  Solving for Uy, Initial residual = 0.13193, Final residual = 0.000324275, No Iterations 1
DILUPBiCGStab:  Solving for Uz, Initial residual = 0.0889191, Final residual = 0.000211329, No Iterations 1
GAMG:  Solving for p, Initial residual = 0.290182, Final residual = 0.00138113, No Iterations 3
time step continuity errors : sum local = 0.000611543, global = -1.19598e-05, cumulative = 0.000313428
DILUPBiCGStab:  Solving for omega, Initial residual = 0.0146024, Final residual = 4.37528e-07, No Iterations 2
DILUPBiCGStab:  Solving for k, Initial residual = 0.045918, Final residual = 2.10232e-06, No Iterations 2
bounding k, min: -1.55952e-09 max: 37.712 average: 0.168768
ExecutionTime = 3.82 s  ClockTime = 4 s

Time = 34

DILUPBiCGStab:  Solving for Ux, Initial residual = 0.0412896, Final residual = 0.000114418, No Iterations 1
DILUPBiCGStab:  Solving for Uy, Initial residual = 0.133742, Final residual = 0.000354126, No Iterations 1
DILUPBiCGStab:  Solving for Uz, Initial residual = 0.0807523, Final residual = 0.000198203, No Iterations 1
GAMG:  Solving for p, Initial residual = 0.268971, Final residual = 0.00208703, No Iterations 3
time step continuity errors : sum local = 0.000868525, global = 1.15959e-05, cumulative = 0.000325023
DILUPBiCGStab:  Solving for omega, Initial residual = 0.013099, Final residual = 4.23717e-07, No Iterations 2
DILUPBiCGStab:  Solving for k, Initial residual = 0.0435561, Final residual = 1.80018e-06, No Iterations 2
bounding k, min: -2.00205e-10 max: 34.9654 average: 0.16233
ExecutionTime = 3.94 s  ClockTime = 4 s

Time = 35

DILUPBiCGStab:  Solving for Ux, Initial residual = 0.039696, Final residual = 0.000115868, No Iterations 1
DILUPBiCGStab:  Solving for Uy, Initial residual = 0.135999, Final residual = 0.000384105, No Iterations 1
DILUPBiCGStab:  Solving for Uz, Initial residual = 0.0736322, Final residual = 0.00018661, No Iterations 1
GAMG:  Solving for p, Initial residual = 0.264142, Final residual = 0.000977162, No Iterations 4
time step continuity errors : sum local = 0.000379709, global = 1.30336e-07, cumulative = 0.000325154
DILUPBiCGStab:  Solving for omega, Initial residual = 0.0119144, Final residual = 4.108e-07, No Iterations 2
DILUPBiCGStab:  Solving for k, Initial residual = 0.0414845, Final residual = 1.87064e-06, No Iterations 2
ExecutionTime = 4.05 s  ClockTime = 5 s

Time = 36

DILUPBiCGStab:  Solving for Ux, Initial residual = 0.0379677, Final residual = 0.000113018, No Iterations 1
DILUPBiCGStab:  Solving for Uy, Initial residual = 0.131194, Final residual = 0.000388254, No Iterations 1
DILUPBiCGStab:  Solving for Uz, Initial residual = 0.0652122, Final residual = 0.000173276, No Iterations 1
GAMG:  Solving for p, Initial residual = 0.260831, Final residual = 0.00126226, No Iterations 4
time step continuity errors : sum local = 0.000453374, global = -4.19423e-06, cumulative = 0.00032096
DILUPBiCGStab:  Solving for omega, Initial residual = 0.0109961, Final residual = 3.99659e-07, No Iterations 2
DILUPBiCGStab:  Solving for k, Initial residual = 0.0398846, Final residual = 1.80251e-06, No Iterations 2
bounding k, min: -3.35843e-10 max: 30.292 average: 0.148791
ExecutionTime = 4.17 s  ClockTime = 5 s

Time = 37

DILUPBiCGStab:  Solving for Ux, Initial residual = 0.036788, Final residual = 0.000111464, No Iterations 1
DILUPBiCGStab:  Solving for Uy, Initial residual = 0.124542, Final residual = 0.000386572, No Iterations 1
DILUPBiCGStab:  Solving for Uz, Initial residual = 0.0581848, Final residual = 0.000162596, No Iterations 1
GAMG:  Solving for p, Initial residual = 0.254863, Final residual = 0.00226773, No Iterations 3
time step continuity errors : sum local = 0.000748013, global = 5.89635e-06, cumulative = 0.000326856
DILUPBiCGStab:  Solving for omega, Initial residual = 0.0101085, Final residual = 3.80257e-07, No Iterations 2
DILUPBiCGStab:  Solving for k, Initial residual = 0.0383435, Final residual = 1.91769e-06, No Iterations 2
bounding k, min: -6.91089e-10 max: 27.8137 average: 0.141792
ExecutionTime = 4.28 s  ClockTime = 5 s

Time = 38

DILUPBiCGStab:  Solving for Ux, Initial residual = 0.0350778, Final residual = 0.000109922, No Iterations 1
DILUPBiCGStab:  Solving for Uy, Initial residual = 0.119673, Final residual = 0.000381198, No Iterations 1
DILUPBiCGStab:  Solving for Uz, Initial residual = 0.0530065, Final residual = 0.000161543, No Iterations 1
GAMG:  Solving for p, Initial residual = 0.241726, Final residual = 0.00198682, No Iterations 3
time step continuity errors : sum local = 0.000608773, global = 3.29757e-06, cumulative = 0.000330154
DILUPBiCGStab:  Solving for omega, Initial residual = 0.00933027, Final residual = 3.66455e-07, No Iterations 2
DILUPBiCGStab:  Solving for k, Initial residual = 0.0370143, Final residual = 1.78773e-06, No Iterations 2
bounding k, min: -3.36606e-10 max: 25.56 average: 0.134837
ExecutionTime = 4.4 s  ClockTime = 5 s

Time = 39

DILUPBiCGStab:  Solving for Ux, Initial residual = 0.033525, Final residual = 0.000111304, No Iterations 1
DILUPBiCGStab:  Solving for Uy, Initial residual = 0.112936, Final residual = 0.000373887, No Iterations 1
DILUPBiCGStab:  Solving for Uz, Initial residual = 0.0515425, Final residual = 0.000165631, No Iterations 1
GAMG:  Solving for p, Initial residual = 0.23131, Final residual = 0.00176872, No Iterations 3
time step continuity errors : sum local = 0.00051196, global = -5.66303e-06, cumulative = 0.00032449
DILUPBiCGStab:  Solving for omega, Initial residual = 0.00871577, Final residual = 3.38997e-07, No Iterations 2
DILUPBiCGStab:  Solving for k, Initial residual = 0.0361608, Final residual = 1.77537e-06, No Iterations 2
bounding k, min: -7.42616e-10 max: 23.3326 average: 0.127949
ExecutionTime = 4.52 s  ClockTime = 5 s

Time = 40

DILUPBiCGStab:  Solving for Ux, Initial residual = 0.0324466, Final residual = 0.000112893, No Iterations 1
DILUPBiCGStab:  Solving for Uy, Initial residual = 0.106458, Final residual = 0.000360151, No Iterations 1
DILUPBiCGStab:  Solving for Uz, Initial residual = 0.050697, Final residual = 0.000159981, No Iterations 1
GAMG:  Solving for p, Initial residual = 0.230324, Final residual = 0.0015735, No Iterations 3
time step continuity errors : sum local = 0.000436642, global = -6.25878e-06, cumulative = 0.000318232
DILUPBiCGStab:  Solving for omega, Initial residual = 0.00816308, Final residual = 3.09572e-07, No Iterations 2
DILUPBiCGStab:  Solving for k, Initial residual = 0.0356489, Final residual = 1.75432e-06, No Iterations 2
bounding k, min: -4.32117e-10 max: 21.2481 average: 0.121176
ExecutionTime = 4.64 s  ClockTime = 5 s

Time = 41

DILUPBiCGStab:  Solving for Ux, Initial residual = 0.0312581, Final residual = 0.000112018, No Iterations 1
DILUPBiCGStab:  Solving for Uy, Initial residual = 0.0999161, Final residual = 0.00035905, No Iterations 1
DILUPBiCGStab:  Solving for Uz, Initial residual = 0.0493356, Final residual = 0.000162041, No Iterations 1
GAMG:  Solving for p, Initial residual = 0.226403, Final residual = 0.0015103, No Iterations 3
time step continuity errors : sum local = 0.000400979, global = -1.59116e-06, cumulative = 0.000316641
DILUPBiCGStab:  Solving for omega, Initial residual = 0.00772594, Final residual = 2.8996e-07, No Iterations 2
DILUPBiCGStab:  Solving for k, Initial residual = 0.0353279, Final residual = 1.72902e-06, No Iterations 2
bounding k, min: -4.78261e-10 max: 19.3506 average: 0.114561
ExecutionTime = 4.75 s  ClockTime = 5 s

Time = 42

DILUPBiCGStab:  Solving for Ux, Initial residual = 0.0305916, Final residual = 0.00010987, No Iterations 1
DILUPBiCGStab:  Solving for Uy, Initial residual = 0.099083, Final residual = 0.000357288, No Iterations 1
DILUPBiCGStab:  Solving for Uz, Initial residual = 0.048131, Final residual = 0.000168608, No Iterations 1
GAMG:  Solving for p, Initial residual = 0.216497, Final residual = 0.00162382, No Iterations 3
time step continuity errors : sum local = 0.000412711, global = -2.92574e-06, cumulative = 0.000313715
DILUPBiCGStab:  Solving for omega, Initial residual = 0.00731612, Final residual = 2.77444e-07, No Iterations 2
DILUPBiCGStab:  Solving for k, Initial residual = 0.0350571, Final residual = 1.65601e-06, No Iterations 2
bounding k, min: -3.62451e-10 max: 17.4233 average: 0.108162
ExecutionTime = 4.86 s  ClockTime = 5 s

Time = 43

DILUPBiCGStab:  Solving for Ux, Initial residual = 0.0298263, Final residual = 0.000108424, No Iterations 1
DILUPBiCGStab:  Solving for Uy, Initial residual = 0.0975392, Final residual = 0.000352491, No Iterations 1
DILUPBiCGStab:  Solving for Uz, Initial residual = 0.0473258, Final residual = 0.000170748, No Iterations 1
GAMG:  Solving for p, Initial residual = 0.209031, Final residual = 0.00184531, No Iterations 3
time step continuity errors : sum local = 0.000447259, global = 1.1133e-06, cumulative = 0.000314828
DILUPBiCGStab:  Solving for omega, Initial residual = 0.00693311, Final residual = 2.67142e-07, No Iterations 2
DILUPBiCGStab:  Solving for k, Initial residual = 0.0347802, Final residual = 1.54119e-06, No Iterations 2
bounding k, min: -3.80092e-10 max: 15.7523 average: 0.102035
ExecutionTime = 4.99 s  ClockTime = 5 s

Time = 44

DILUPBiCGStab:  Solving for Ux, Initial residual = 0.0290812, Final residual = 0.000107034, No Iterations 1
DILUPBiCGStab:  Solving for Uy, Initial residual = 0.0958043, Final residual = 0.000350361, No Iterations 1
DILUPBiCGStab:  Solving for Uz, Initial residual = 0.046677, Final residual = 0.000170872, No Iterations 1
GAMG:  Solving for p, Initial residual = 0.202469, Final residual = 0.000751906, No Iterations 4
time step continuity errors : sum local = 0.000171103, global = 7.91684e-07, cumulative = 0.00031562
DILUPBiCGStab:  Solving for omega, Initial residual = 0.00657122, Final residual = 2.60295e-07, No Iterations 2
DILUPBiCGStab:  Solving for k, Initial residual = 0.0344988, Final residual = 1.42036e-06, No Iterations 2
bounding k, min: -7.54074e-10 max: 14.0466 average: 0.0962088
ExecutionTime = 5.1 s  ClockTime = 6 s

Time = 45

DILUPBiCGStab:  Solving for Ux, Initial residual = 0.0283747, Final residual = 0.000105351, No Iterations 1
DILUPBiCGStab:  Solving for Uy, Initial residual = 0.0946742, Final residual = 0.000354755, No Iterations 1
DILUPBiCGStab:  Solving for Uz, Initial residual = 0.0458678, Final residual = 0.000173781, No Iterations 1
GAMG:  Solving for p, Initial residual = 0.201736, Final residual = 0.000795687, No Iterations 4
time step continuity errors : sum local = 0.00016867, global = 3.48773e-07, cumulative = 0.000315969
DILUPBiCGStab:  Solving for omega, Initial residual = 0.00629886, Final residual = 2.53388e-07, No Iterations 2
DILUPBiCGStab:  Solving for k, Initial residual = 0.0344861, Final residual = 1.31237e-06, No Iterations 2
bounding k, min: -3.82718e-10 max: 12.595 average: 0.0906863
ExecutionTime = 5.22 s  ClockTime = 6 s

Time = 46

DILUPBiCGStab:  Solving for Ux, Initial residual = 0.027901, Final residual = 0.000101693, No Iterations 1
DILUPBiCGStab:  Solving for Uy, Initial residual = 0.0942349, Final residual = 0.000355184, No Iterations 1
DILUPBiCGStab:  Solving for Uz, Initial residual = 0.0452378, Final residual = 0.000178318, No Iterations 1
GAMG:  Solving for p, Initial residual = 0.20314, Final residual = 0.000736102, No Iterations 4
time step continuity errors : sum local = 0.000144604, global = -2.47481e-07, cumulative = 0.000315721
DILUPBiCGStab:  Solving for omega, Initial residual = 0.00609705, Final residual = 2.46626e-07, No Iterations 2
DILUPBiCGStab:  Solving for k, Initial residual = 0.0344216, Final residual = 1.26448e-06, No Iterations 2
bounding k, min: -5.95867e-10 max: 11.2809 average: 0.0854654
ExecutionTime = 5.33 s  ClockTime = 6 s

Time = 47

DILUPBiCGStab:  Solving for Ux, Initial residual = 0.0273663, Final residual = 9.86024e-05, No Iterations 1
DILUPBiCGStab:  Solving for Uy, Initial residual = 0.0927121, Final residual = 0.000346638, No Iterations 1
DILUPBiCGStab:  Solving for Uz, Initial residual = 0.0450849, Final residual = 0.000180274, No Iterations 1
GAMG:  Solving for p, Initial residual = 0.206242, Final residual = 0.00198974, No Iterations 3
time step continuity errors : sum local = 0.000366131, global = 8.69046e-07, cumulative = 0.00031659
DILUPBiCGStab:  Solving for omega, Initial residual = 0.0059264, Final residual = 2.43899e-07, No Iterations 2
DILUPBiCGStab:  Solving for k, Initial residual = 0.0344075, Final residual = 1.23407e-06, No Iterations 2
bounding k, min: -2.44046e-10 max: 10.73 average: 0.0805411
ExecutionTime = 5.44 s  ClockTime = 6 s

Time = 48

DILUPBiCGStab:  Solving for Ux, Initial residual = 0.0269799, Final residual = 9.64734e-05, No Iterations 1
DILUPBiCGStab:  Solving for Uy, Initial residual = 0.0940155, Final residual = 0.000337417, No Iterations 1
DILUPBiCGStab:  Solving for Uz, Initial residual = 0.0461935, Final residual = 0.000182379, No Iterations 1
GAMG:  Solving for p, Initial residual = 0.213412, Final residual = 0.00183967, No Iterations 3
time step continuity errors : sum local = 0.0003205, global = -6.73218e-07, cumulative = 0.000315917
DILUPBiCGStab:  Solving for omega, Initial residual = 0.00578695, Final residual = 2.38831e-07, No Iterations 2
DILUPBiCGStab:  Solving for k, Initial residual = 0.0340714, Final residual = 1.21719e-06, No Iterations 2
bounding k, min: -5.66396e-10 max: 10.2997 average: 0.0759104
ExecutionTime = 5.57 s  ClockTime = 6 s

Time = 49

DILUPBiCGStab:  Solving for Ux, Initial residual = 0.0268938, Final residual = 9.27125e-05, No Iterations 1
DILUPBiCGStab:  Solving for Uy, Initial residual = 0.0946865, Final residual = 0.00032688, No Iterations 1
DILUPBiCGStab:  Solving for Uz, Initial residual = 0.0475279, Final residual = 0.000179184, No Iterations 1
GAMG:  Solving for p, Initial residual = 0.222072, Final residual = 0.00178384, No Iterations 3
time step continuity errors : sum local = 0.000298392, global = -3.69262e-07, cumulative = 0.000315548
DILUPBiCGStab:  Solving for omega, Initial residual = 0.00573631, Final residual = 2.4326e-07, No Iterations 2
DILUPBiCGStab:  Solving for k, Initial residual = 0.033576, Final residual = 1.20816e-06, No Iterations 2
bounding k, min: -3.27862e-10 max: 9.79798 average: 0.0715579
ExecutionTime = 5.68 s  ClockTime = 6 s

Time = 50

DILUPBiCGStab:  Solving for Ux, Initial residual = 0.0268023, Final residual = 8.88443e-05, No Iterations 1
DILUPBiCGStab:  Solving for Uy, Initial residual = 0.0943685, Final residual = 0.000319596, No Iterations 1
DILUPBiCGStab:  Solving for Uz, Initial residual = 0.0502736, Final residual = 0.0001772, No Iterations 1
GAMG:  Solving for p, Initial residual = 0.223884, Final residual = 0.00179898, No Iterations 3
time step continuity errors : sum local = 0.000290502, global = 1.42405e-06, cumulative = 0.000316972
DILUPBiCGStab:  Solving for omega, Initial residual = 0.00576615, Final residual = 2.43633e-07, No Iterations 2
DILUPBiCGStab:  Solving for k, Initial residual = 0.0332313, Final residual = 1.2073e-06, No Iterations 2
bounding k, min: -1.35807e-10 max: 9.24177 average: 0.0674631
ExecutionTime = 5.8 s  ClockTime = 6 s

Time = 51

DILUPBiCGStab:  Solving for Ux, Initial residual = 0.0267539, Final residual = 8.69019e-05, No Iterations 1
DILUPBiCGStab:  Solving for Uy, Initial residual = 0.0923298, Final residual = 0.000307359, No Iterations 1
DILUPBiCGStab:  Solving for Uz, Initial residual = 0.0537192, Final residual = 0.00019607, No Iterations 1
GAMG:  Solving for p, Initial residual = 0.226042, Final residual = 0.00191696, No Iterations 3
time step continuity errors : sum local = 0.000302047, global = 1.43689e-06, cumulative = 0.000318409
DILUPBiCGStab:  Solving for omega, Initial residual = 0.005876, Final residual = 2.40571e-07, No Iterations 2
DILUPBiCGStab:  Solving for k, Initial residual = 0.0330131, Final residual = 1.20869e-06, No Iterations 2
bounding k, min: -1.10151e-10 max: 8.66067 average: 0.063615
ExecutionTime = 5.91 s  ClockTime = 6 s

Time = 52

DILUPBiCGStab:  Solving for Ux, Initial residual = 0.026802, Final residual = 8.54907e-05, No Iterations 1
DILUPBiCGStab:  Solving for Uy, Initial residual = 0.0888502, Final residual = 0.000287411, No Iterations 1
DILUPBiCGStab:  Solving for Uz, Initial residual = 0.0587743, Final residual = 0.000230064, No Iterations 1
GAMG:  Solving for p, Initial residual = 0.229294, Final residual = 0.00210446, No Iterations 3
time step continuity errors : sum local = 0.000323232, global = 1.37912e-06, cumulative = 0.000319788
DILUPBiCGStab:  Solving for omega, Initial residual = 0.00601778, Final residual = 2.35349e-07, No Iterations 2
DILUPBiCGStab:  Solving for k, Initial residual = 0.0328748, Final residual = 1.17828e-06, No Iterations 2
bounding k, min: -1.13154e-10 max: 8.06182 average: 0.0599951
ExecutionTime = 6.02 s  ClockTime = 7 s

Time = 53

DILUPBiCGStab:  Solving for Ux, Initial residual = 0.0269478, Final residual = 8.40161e-05, No Iterations 1
DILUPBiCGStab:  Solving for Uy, Initial residual = 0.0850233, Final residual = 0.000264073, No Iterations 1
DILUPBiCGStab:  Solving for Uz, Initial residual = 0.0644977, Final residual = 0.000264126, No Iterations 1
GAMG:  Solving for p, Initial residual = 0.23209, Final residual = 0.00205227, No Iterations 3
time step continuity errors : sum local = 0.000306676, global = 1.288e-06, cumulative = 0.000321076
DILUPBiCGStab:  Solving for omega, Initial residual = 0.00611277, Final residual = 2.23309e-07, No Iterations 2
DILUPBiCGStab:  Solving for k, Initial residual = 0.0328111, Final residual = 1.13898e-06, No Iterations 2
bounding k, min: -5.13029e-11 max: 7.45145 average: 0.0565803
ExecutionTime = 6.14 s  ClockTime = 7 s

Time = 54

DILUPBiCGStab:  Solving for Ux, Initial residual = 0.0271987, Final residual = 8.24791e-05, No Iterations 1
DILUPBiCGStab:  Solving for Uy, Initial residual = 0.0821129, Final residual = 0.000242797, No Iterations 1
DILUPBiCGStab:  Solving for Uz, Initial residual = 0.0694507, Final residual = 0.00029128, No Iterations 1
GAMG:  Solving for p, Initial residual = 0.23441, Final residual = 0.00182091, No Iterations 3
time step continuity errors : sum local = 0.000263903, global = 1.13152e-06, cumulative = 0.000322207
DILUPBiCGStab:  Solving for omega, Initial residual = 0.00636383, Final residual = 2.28673e-07, No Iterations 2
DILUPBiCGStab:  Solving for k, Initial residual = 0.0331276, Final residual = 1.1299e-06, No Iterations 2
bounding k, min: -3.10987e-11 max: 6.88077 average: 0.0533514
ExecutionTime = 6.27 s  ClockTime = 7 s

Time = 55

DILUPBiCGStab:  Solving for Ux, Initial residual = 0.027616, Final residual = 8.24351e-05, No Iterations 1
DILUPBiCGStab:  Solving for Uy, Initial residual = 0.0811746, Final residual = 0.000229648, No Iterations 1
DILUPBiCGStab:  Solving for Uz, Initial residual = 0.0734648, Final residual = 0.000308838, No Iterations 1
GAMG:  Solving for p, Initial residual = 0.233618, Final residual = 0.00162229, No Iterations 3
time step continuity errors : sum local = 0.00023027, global = 8.68099e-07, cumulative = 0.000323075
DILUPBiCGStab:  Solving for omega, Initial residual = 0.00651257, Final residual = 2.42357e-07, No Iterations 2
DILUPBiCGStab:  Solving for k, Initial residual = 0.0337816, Final residual = 1.15763e-06, No Iterations 2
bounding k, min: -1.23571e-11 max: 6.47094 average: 0.0502918
ExecutionTime = 6.38 s  ClockTime = 7 s

Time = 56

DILUPBiCGStab:  Solving for Ux, Initial residual = 0.0281356, Final residual = 8.51821e-05, No Iterations 1
DILUPBiCGStab:  Solving for Uy, Initial residual = 0.0825178, Final residual = 0.000231696, No Iterations 1
DILUPBiCGStab:  Solving for Uz, Initial residual = 0.0745917, Final residual = 0.000316802, No Iterations 1
GAMG:  Solving for p, Initial residual = 0.232688, Final residual = 0.00160764, No Iterations 3
time step continuity errors : sum local = 0.000225042, global = 6.44922e-07, cumulative = 0.00032372
DILUPBiCGStab:  Solving for omega, Initial residual = 0.00665763, Final residual = 2.57982e-07, No Iterations 2
DILUPBiCGStab:  Solving for k, Initial residual = 0.0345261, Final residual = 1.20611e-06, No Iterations 2
bounding k, min: -2.10171e-11 max: 6.03349 average: 0.0473819
ExecutionTime = 6.5 s  ClockTime = 7 s

Time = 57

DILUPBiCGStab:  Solving for Ux, Initial residual = 0.0288238, Final residual = 8.95386e-05, No Iterations 1
DILUPBiCGStab:  Solving for Uy, Initial residual = 0.084635, Final residual = 0.000246744, No Iterations 1
DILUPBiCGStab:  Solving for Uz, Initial residual = 0.0735797, Final residual = 0.000317279, No Iterations 1
GAMG:  Solving for p, Initial residual = 0.241278, Final residual = 0.00169879, No Iterations 3
time step continuity errors : sum local = 0.000234855, global = 4.86433e-07, cumulative = 0.000324207
DILUPBiCGStab:  Solving for omega, Initial residual = 0.00686658, Final residual = 2.75351e-07, No Iterations 2
DILUPBiCGStab:  Solving for k, Initial residual = 0.035303, Final residual = 1.25512e-06, No Iterations 2
bounding k, min: -6.27408e-12 max: 5.57835 average: 0.0446018
ExecutionTime = 6.61 s  ClockTime = 7 s

Time = 58

DILUPBiCGStab:  Solving for Ux, Initial residual = 0.0295092, Final residual = 9.48249e-05, No Iterations 1
DILUPBiCGStab:  Solving for Uy, Initial residual = 0.0875468, Final residual = 0.000263676, No Iterations 1
DILUPBiCGStab:  Solving for Uz, Initial residual = 0.0715687, Final residual = 0.000305393, No Iterations 1
GAMG:  Solving for p, Initial residual = 0.246932, Final residual = 0.00172295, No Iterations 3
time step continuity errors : sum local = 0.000235388, global = 3.3951e-07, cumulative = 0.000324546
DILUPBiCGStab:  Solving for omega, Initial residual = 0.00698323, Final residual = 2.85734e-07, No Iterations 2
DILUPBiCGStab:  Solving for k, Initial residual = 0.0364251, Final residual = 1.32458e-06, No Iterations 2
bounding k, min: -1.97728e-13 max: 5.11985 average: 0.0419367
ExecutionTime = 6.71 s  ClockTime = 7 s

Time = 59

DILUPBiCGStab:  Solving for Ux, Initial residual = 0.0298565, Final residual = 9.86109e-05, No Iterations 1
DILUPBiCGStab:  Solving for Uy, Initial residual = 0.0890997, Final residual = 0.000274334, No Iterations 1
DILUPBiCGStab:  Solving for Uz, Initial residual = 0.0690248, Final residual = 0.00028739, No Iterations 1
GAMG:  Solving for p, Initial residual = 0.24455, Final residual = 0.00168073, No Iterations 3
time step continuity errors : sum local = 0.000228899, global = 1.86125e-07, cumulative = 0.000324732
DILUPBiCGStab:  Solving for omega, Initial residual = 0.00705362, Final residual = 2.95546e-07, No Iterations 2
DILUPBiCGStab:  Solving for k, Initial residual = 0.0375557, Final residual = 1.3975e-06, No Iterations 2
ExecutionTime = 6.82 s  ClockTime = 7 s

Time = 60

DILUPBiCGStab:  Solving for Ux, Initial residual = 0.0300122, Final residual = 9.88374e-05, No Iterations 1
DILUPBiCGStab:  Solving for Uy, Initial residual = 0.0881597, Final residual = 0.000270186, No Iterations 1
DILUPBiCGStab:  Solving for Uz, Initial residual = 0.0668598, Final residual = 0.000272633, No Iterations 1
GAMG:  Solving for p, Initial residual = 0.240181, Final residual = 0.00178007, No Iterations 3
time step continuity errors : sum local = 0.000240787, global = -4.75439e-09, cumulative = 0.000324728
DILUPBiCGStab:  Solving for omega, Initial residual = 0.00712083, Final residual = 3.16673e-07, No Iterations 2
DILUPBiCGStab:  Solving for k, Initial residual = 0.038601, Final residual = 1.46077e-06, No Iterations 2
ExecutionTime = 6.93 s  ClockTime = 7 s

Time = 61

DILUPBiCGStab:  Solving for Ux, Initial residual = 0.0300486, Final residual = 9.69158e-05, No Iterations 1
DILUPBiCGStab:  Solving for Uy, Initial residual = 0.0856807, Final residual = 0.000254263, No Iterations 1
DILUPBiCGStab:  Solving for Uz, Initial residual = 0.0649161, Final residual = 0.00026027, No Iterations 1
GAMG:  Solving for p, Initial residual = 0.236316, Final residual = 0.00104325, No Iterations 4
time step continuity errors : sum local = 0.000139901, global = -2.64115e-07, cumulative = 0.000324463
DILUPBiCGStab:  Solving for omega, Initial residual = 0.00720793, Final residual = 3.44181e-07, No Iterations 2
DILUPBiCGStab:  Solving for k, Initial residual = 0.0397314, Final residual = 1.53743e-06, No Iterations 2
ExecutionTime = 7.04 s  ClockTime = 8 s

Time = 62

DILUPBiCGStab:  Solving for Ux, Initial residual = 0.0297723, Final residual = 9.31062e-05, No Iterations 1
DILUPBiCGStab:  Solving for Uy, Initial residual = 0.0831466, Final residual = 0.000240343, No Iterations 1
DILUPBiCGStab:  Solving for Uz, Initial residual = 0.0629419, Final residual = 0.000247699, No Iterations 1
GAMG:  Solving for p, Initial residual = 0.237486, Final residual = 0.00106038, No Iterations 4
time step continuity errors : sum local = 0.000138917, global = -5.01281e-07, cumulative = 0.000323962
DILUPBiCGStab:  Solving for omega, Initial residual = 0.00733358, Final residual = 3.65136e-07, No Iterations 2
DILUPBiCGStab:  Solving for k, Initial residual = 0.0409261, Final residual = 1.62715e-06, No Iterations 2
ExecutionTime = 7.16 s  ClockTime = 8 s

Time = 63

DILUPBiCGStab:  Solving for Ux, Initial residual = 0.0293444, Final residual = 8.94742e-05, No Iterations 1
DILUPBiCGStab:  Solving for Uy, Initial residual = 0.0801987, Final residual = 0.000237485, No Iterations 1
DILUPBiCGStab:  Solving for Uz, Initial residual = 0.060498, Final residual = 0.000239633, No Iterations 1
GAMG:  Solving for p, Initial residual = 0.239445, Final residual = 0.00103979, No Iterations 4
time step continuity errors : sum local = 0.000131212, global = -7.41856e-07, cumulative = 0.00032322
DILUPBiCGStab:  Solving for omega, Initial residual = 0.00752594, Final residual = 3.88216e-07, No Iterations 2
DILUPBiCGStab:  Solving for k, Initial residual = 0.0421822, Final residual = 1.7178e-06, No Iterations 2
ExecutionTime = 7.27 s  ClockTime = 8 s

Time = 64

DILUPBiCGStab:  Solving for Ux, Initial residual = 0.0287926, Final residual = 8.53348e-05, No Iterations 1
DILUPBiCGStab:  Solving for Uy, Initial residual = 0.077601, Final residual = 0.000237929, No Iterations 1
DILUPBiCGStab:  Solving for Uz, Initial residual = 0.0583031, Final residual = 0.000233311, No Iterations 1
GAMG:  Solving for p, Initial residual = 0.244837, Final residual = 0.00096431, No Iterations 4
time step continuity errors : sum local = 0.0001167, global = 3.24375e-07, cumulative = 0.000323545
DILUPBiCGStab:  Solving for omega, Initial residual = 0.00777889, Final residual = 4.17741e-07, No Iterations 2
DILUPBiCGStab:  Solving for k, Initial residual = 0.0432838, Final residual = 1.80659e-06, No Iterations 2
ExecutionTime = 7.39 s  ClockTime = 8 s

Time = 65

DILUPBiCGStab:  Solving for Ux, Initial residual = 0.028102, Final residual = 7.98568e-05, No Iterations 1
DILUPBiCGStab:  Solving for Uy, Initial residual = 0.0754722, Final residual = 0.000240539, No Iterations 1
DILUPBiCGStab:  Solving for Uz, Initial residual = 0.0563869, Final residual = 0.000231203, No Iterations 1
GAMG:  Solving for p, Initial residual = 0.251135, Final residual = 0.00210239, No Iterations 3
time step continuity errors : sum local = 0.000242794, global = -2.79049e-07, cumulative = 0.000323266
DILUPBiCGStab:  Solving for omega, Initial residual = 0.00803361, Final residual = 4.4674e-07, No Iterations 2
DILUPBiCGStab:  Solving for k, Initial residual = 0.0441669, Final residual = 1.89025e-06, No Iterations 2
ExecutionTime = 7.5 s  ClockTime = 8 s

Time = 66

DILUPBiCGStab:  Solving for Ux, Initial residual = 0.0271914, Final residual = 7.54811e-05, No Iterations 1
DILUPBiCGStab:  Solving for Uy, Initial residual = 0.074604, Final residual = 0.000240138, No Iterations 1
DILUPBiCGStab:  Solving for Uz, Initial residual = 0.0544938, Final residual = 0.000224821, No Iterations 1
GAMG:  Solving for p, Initial residual = 0.2559, Final residual = 0.00189254, No Iterations 3
time step continuity errors : sum local = 0.000209865, global = -9.88829e-08, cumulative = 0.000323167
DILUPBiCGStab:  Solving for omega, Initial residual = 0.00828595, Final residual = 4.67915e-07, No Iterations 2
DILUPBiCGStab:  Solving for k, Initial residual = 0.0449472, Final residual = 1.98889e-06, No Iterations 2
ExecutionTime = 7.62 s  ClockTime = 8 s

Time = 67

DILUPBiCGStab:  Solving for Ux, Initial residual = 0.0263398, Final residual = 7.25305e-05, No Iterations 1
DILUPBiCGStab:  Solving for Uy, Initial residual = 0.0746751, Final residual = 0.000239082, No Iterations 1
DILUPBiCGStab:  Solving for Uz, Initial residual = 0.0525129, Final residual = 0.000215796, No Iterations 1
GAMG:  Solving for p, Initial residual = 0.263265, Final residual = 0.00201008, No Iterations 3
time step continuity errors : sum local = 0.000214693, global = 9.39667e-08, cumulative = 0.000323261
DILUPBiCGStab:  Solving for omega, Initial residual = 0.00852139, Final residual = 4.74527e-07, No Iterations 2
DILUPBiCGStab:  Solving for k, Initial residual = 0.0455345, Final residual = 2.11347e-06, No Iterations 2
ExecutionTime = 7.74 s  ClockTime = 8 s

Time = 68

DILUPBiCGStab:  Solving for Ux, Initial residual = 0.0256088, Final residual = 7.00456e-05, No Iterations 1
DILUPBiCGStab:  Solving for Uy, Initial residual = 0.0741264, Final residual = 0.000237824, No Iterations 1
DILUPBiCGStab:  Solving for Uz, Initial residual = 0.050679, Final residual = 0.000205389, No Iterations 1
GAMG:  Solving for p, Initial residual = 0.269825, Final residual = 0.00215459, No Iterations 3
time step continuity errors : sum local = 0.000222007, global = 2.63335e-07, cumulative = 0.000323524
DILUPBiCGStab:  Solving for omega, Initial residual = 0.00865042, Final residual = 4.81202e-07, No Iterations 2
DILUPBiCGStab:  Solving for k, Initial residual = 0.0458875, Final residual = 2.2145e-06, No Iterations 2
ExecutionTime = 7.85 s  ClockTime = 8 s

Time = 69

DILUPBiCGStab:  Solving for Ux, Initial residual = 0.0252262, Final residual = 6.86554e-05, No Iterations 1
DILUPBiCGStab:  Solving for Uy, Initial residual = 0.0747235, Final residual = 0.000240775, No Iterations 1
DILUPBiCGStab:  Solving for Uz, Initial residual = 0.0483897, Final residual = 0.000197069, No Iterations 1
GAMG:  Solving for p, Initial residual = 0.278902, Final residual = 0.00206386, No Iterations 3
time step continuity errors : sum local = 0.000204091, global = 4.14835e-07, cumulative = 0.000323939
DILUPBiCGStab:  Solving for omega, Initial residual = 0.00876136, Final residual = 5.11193e-07, No Iterations 2
DILUPBiCGStab:  Solving for k, Initial residual = 0.0458988, Final residual = 2.2847e-06, No Iterations 2
ExecutionTime = 7.96 s  ClockTime = 8 s

Time = 70

DILUPBiCGStab:  Solving for Ux, Initial residual = 0.0247773, Final residual = 6.6844e-05, No Iterations 1
DILUPBiCGStab:  Solving for Uy, Initial residual = 0.0766916, Final residual = 0.000243279, No Iterations 1
DILUPBiCGStab:  Solving for Uz, Initial residual = 0.0461432, Final residual = 0.000190053, No Iterations 1
GAMG:  Solving for p, Initial residual = 0.283156, Final residual = 0.00172316, No Iterations 3
time step continuity errors : sum local = 0.000163491, global = 5.56483e-07, cumulative = 0.000324495
DILUPBiCGStab:  Solving for omega, Initial residual = 0.0089222, Final residual = 5.48864e-07, No Iterations 2
DILUPBiCGStab:  Solving for k, Initial residual = 0.0459128, Final residual = 2.35609e-06, No Iterations 2
ExecutionTime = 8.07 s  ClockTime = 9 s

Time = 71

DILUPBiCGStab:  Solving for Ux, Initial residual = 0.024347, Final residual = 6.65842e-05, No Iterations 1
DILUPBiCGStab:  Solving for Uy, Initial residual = 0.079691, Final residual = 0.000241984, No Iterations 1
DILUPBiCGStab:  Solving for Uz, Initial residual = 0.0437527, Final residual = 0.000182231, No Iterations 1
GAMG:  Solving for p, Initial residual = 0.279655, Final residual = 0.00144218, No Iterations 3
time step continuity errors : sum local = 0.000131626, global = -1.00895e-07, cumulative = 0.000324394
DILUPBiCGStab:  Solving for omega, Initial residual = 0.00897154, Final residual = 5.73631e-07, No Iterations 2
DILUPBiCGStab:  Solving for k, Initial residual = 0.0458795, Final residual = 2.38648e-06, No Iterations 2
ExecutionTime = 8.18 s  ClockTime = 9 s

Time = 72

DILUPBiCGStab:  Solving for Ux, Initial residual = 0.0238808, Final residual = 6.5665e-05, No Iterations 1
DILUPBiCGStab:  Solving for Uy, Initial residual = 0.082279, Final residual = 0.000238891, No Iterations 1
DILUPBiCGStab:  Solving for Uz, Initial residual = 0.0416978, Final residual = 0.000172441, No Iterations 1
GAMG:  Solving for p, Initial residual = 0.275835, Final residual = 0.00125185, No Iterations 3
time step continuity errors : sum local = 0.000109576, global = 4.72278e-07, cumulative = 0.000324867
DILUPBiCGStab:  Solving for omega, Initial residual = 0.00901699, Final residual = 5.9876e-07, No Iterations 2
DILUPBiCGStab:  Solving for k, Initial residual = 0.045616, Final residual = 2.385e-06, No Iterations 2
ExecutionTime = 8.29 s  ClockTime = 9 s

Time = 73

DILUPBiCGStab:  Solving for Ux, Initial residual = 0.0234903, Final residual = 6.46452e-05, No Iterations 1
DILUPBiCGStab:  Solving for Uy, Initial residual = 0.084853, Final residual = 0.000237294, No Iterations 1
DILUPBiCGStab:  Solving for Uz, Initial residual = 0.0403774, Final residual = 0.000163292, No Iterations 1
GAMG:  Solving for p, Initial residual = 0.277247, Final residual = 0.00119826, No Iterations 3
time step continuity errors : sum local = 0.000100559, global = 3.96998e-07, cumulative = 0.000325264
DILUPBiCGStab:  Solving for omega, Initial residual = 0.00900336, Final residual = 6.261e-07, No Iterations 2
DILUPBiCGStab:  Solving for k, Initial residual = 0.0452589, Final residual = 2.4367e-06, No Iterations 2
ExecutionTime = 8.4 s  ClockTime = 9 s

Time = 74

DILUPBiCGStab:  Solving for Ux, Initial residual = 0.0230836, Final residual = 6.31563e-05, No Iterations 1
DILUPBiCGStab:  Solving for Uy, Initial residual = 0.086903, Final residual = 0.000241052, No Iterations 1
DILUPBiCGStab:  Solving for Uz, Initial residual = 0.0396356, Final residual = 0.000157548, No Iterations 1
GAMG:  Solving for p, Initial residual = 0.286129, Final residual = 0.00123116, No Iterations 3
time step continuity errors : sum local = 9.90997e-05, global = 3.20674e-07, cumulative = 0.000325584
DILUPBiCGStab:  Solving for omega, Initial residual = 0.0089222, Final residual = 6.43792e-07, No Iterations 2
DILUPBiCGStab:  Solving for k, Initial residual = 0.0447356, Final residual = 2.50435e-06, No Iterations 2
ExecutionTime = 8.51 s  ClockTime = 9 s

Time = 75

DILUPBiCGStab:  Solving for Ux, Initial residual = 0.022606, Final residual = 6.11271e-05, No Iterations 1
DILUPBiCGStab:  Solving for Uy, Initial residual = 0.0880855, Final residual = 0.000241939, No Iterations 1
DILUPBiCGStab:  Solving for Uz, Initial residual = 0.0391359, Final residual = 0.000152155, No Iterations 1
GAMG:  Solving for p, Initial residual = 0.296639, Final residual = 0.00126154, No Iterations 3
time step continuity errors : sum local = 9.74027e-05, global = 2.64027e-07, cumulative = 0.000325848
DILUPBiCGStab:  Solving for omega, Initial residual = 0.00875729, Final residual = 6.60949e-07, No Iterations 2
DILUPBiCGStab:  Solving for k, Initial residual = 0.0439925, Final residual = 2.61828e-06, No Iterations 2
ExecutionTime = 8.62 s  ClockTime = 9 s

Time = 76

DILUPBiCGStab:  Solving for Ux, Initial residual = 0.0221263, Final residual = 5.97911e-05, No Iterations 1
DILUPBiCGStab:  Solving for Uy, Initial residual = 0.0868447, Final residual = 0.000235169, No Iterations 1
DILUPBiCGStab:  Solving for Uz, Initial residual = 0.0388587, Final residual = 0.000147729, No Iterations 1
GAMG:  Solving for p, Initial residual = 0.305356, Final residual = 0.00131545, No Iterations 3
time step continuity errors : sum local = 9.6833e-05, global = 2.15626e-07, cumulative = 0.000326064
DILUPBiCGStab:  Solving for omega, Initial residual = 0.00856496, Final residual = 6.67744e-07, No Iterations 2
DILUPBiCGStab:  Solving for k, Initial residual = 0.0430864, Final residual = 2.73295e-06, No Iterations 2
ExecutionTime = 8.72 s  ClockTime = 9 s

Time = 77

DILUPBiCGStab:  Solving for Ux, Initial residual = 0.0214806, Final residual = 5.86144e-05, No Iterations 1
DILUPBiCGStab:  Solving for Uy, Initial residual = 0.0857653, Final residual = 0.000230763, No Iterations 1
DILUPBiCGStab:  Solving for Uz, Initial residual = 0.0387177, Final residual = 0.000143934, No Iterations 1
GAMG:  Solving for p, Initial residual = 0.307768, Final residual = 0.00136849, No Iterations 3
time step continuity errors : sum local = 9.64676e-05, global = 1.87616e-07, cumulative = 0.000326252
DILUPBiCGStab:  Solving for omega, Initial residual = 0.00835439, Final residual = 6.67968e-07, No Iterations 2
DILUPBiCGStab:  Solving for k, Initial residual = 0.0420594, Final residual = 2.85681e-06, No Iterations 2
ExecutionTime = 8.84 s  ClockTime = 9 s

Time = 78

DILUPBiCGStab:  Solving for Ux, Initial residual = 0.0208743, Final residual = 5.7328e-05, No Iterations 1
DILUPBiCGStab:  Solving for Uy, Initial residual = 0.0854048, Final residual = 0.000229218, No Iterations 1
DILUPBiCGStab:  Solving for Uz, Initial residual = 0.0388427, Final residual = 0.000141145, No Iterations 1
GAMG:  Solving for p, Initial residual = 0.303552, Final residual = 0.00138349, No Iterations 3
time step continuity errors : sum local = 9.38542e-05, global = 1.75602e-07, cumulative = 0.000326427
DILUPBiCGStab:  Solving for omega, Initial residual = 0.00813398, Final residual = 6.79927e-07, No Iterations 2
DILUPBiCGStab:  Solving for k, Initial residual = 0.0409193, Final residual = 2.93165e-06, No Iterations 2
ExecutionTime = 8.96 s  ClockTime = 9 s

Time = 79

DILUPBiCGStab:  Solving for Ux, Initial residual = 0.0203433, Final residual = 5.59752e-05, No Iterations 1
DILUPBiCGStab:  Solving for Uy, Initial residual = 0.0842773, Final residual = 0.000227246, No Iterations 1
DILUPBiCGStab:  Solving for Uz, Initial residual = 0.0386592, Final residual = 0.000139104, No Iterations 1
GAMG:  Solving for p, Initial residual = 0.300789, Final residual = 0.00133665, No Iterations 3
time step continuity errors : sum local = 8.77411e-05, global = 1.87924e-07, cumulative = 0.000326615
DILUPBiCGStab:  Solving for omega, Initial residual = 0.00786893, Final residual = 6.82039e-07, No Iterations 2
DILUPBiCGStab:  Solving for k, Initial residual = 0.0397278, Final residual = 2.95084e-06, No Iterations 2
ExecutionTime = 9.07 s  ClockTime = 10 s

Time = 80

DILUPBiCGStab:  Solving for Ux, Initial residual = 0.0197717, Final residual = 5.47796e-05, No Iterations 1
DILUPBiCGStab:  Solving for Uy, Initial residual = 0.0822684, Final residual = 0.000223349, No Iterations 1
DILUPBiCGStab:  Solving for Uz, Initial residual = 0.0383076, Final residual = 0.000137352, No Iterations 1
GAMG:  Solving for p, Initial residual = 0.294061, Final residual = 0.00135462, No Iterations 3
time step continuity errors : sum local = 8.65836e-05, global = 2.38951e-07, cumulative = 0.000326854
DILUPBiCGStab:  Solving for omega, Initial residual = 0.00759962, Final residual = 6.87567e-07, No Iterations 2
DILUPBiCGStab:  Solving for k, Initial residual = 0.0385431, Final residual = 2.93506e-06, No Iterations 2
ExecutionTime = 9.18 s  ClockTime = 10 s

Time = 81

DILUPBiCGStab:  Solving for Ux, Initial residual = 0.0192968, Final residual = 5.30612e-05, No Iterations 1
DILUPBiCGStab:  Solving for Uy, Initial residual = 0.0795304, Final residual = 0.00022233, No Iterations 1
DILUPBiCGStab:  Solving for Uz, Initial residual = 0.0380666, Final residual = 0.000135538, No Iterations 1
GAMG:  Solving for p, Initial residual = 0.290214, Final residual = 0.00150814, No Iterations 3
time step continuity errors : sum local = 9.38044e-05, global = 3.04395e-07, cumulative = 0.000327159
DILUPBiCGStab:  Solving for omega, Initial residual = 0.00739825, Final residual = 6.91418e-07, No Iterations 2
DILUPBiCGStab:  Solving for k, Initial residual = 0.0375851, Final residual = 2.94833e-06, No Iterations 2
ExecutionTime = 9.28 s  ClockTime = 10 s

Time = 82

DILUPBiCGStab:  Solving for Ux, Initial residual = 0.0189847, Final residual = 5.1944e-05, No Iterations 1
DILUPBiCGStab:  Solving for Uy, Initial residual = 0.077893, Final residual = 0.000224832, No Iterations 1
DILUPBiCGStab:  Solving for Uz, Initial residual = 0.0377981, Final residual = 0.000134021, No Iterations 1
GAMG:  Solving for p, Initial residual = 0.286059, Final residual = 0.00167512, No Iterations 3
time step continuity errors : sum local = 0.000102141, global = 4.92254e-08, cumulative = 0.000327208
DILUPBiCGStab:  Solving for omega, Initial residual = 0.00725257, Final residual = 6.90848e-07, No Iterations 2
DILUPBiCGStab:  Solving for k, Initial residual = 0.0367808, Final residual = 3.05627e-06, No Iterations 2
ExecutionTime = 9.4 s  ClockTime = 10 s

Time = 83

DILUPBiCGStab:  Solving for Ux, Initial residual = 0.0187911, Final residual = 5.10409e-05, No Iterations 1
DILUPBiCGStab:  Solving for Uy, Initial residual = 0.076574, Final residual = 0.000229578, No Iterations 1
DILUPBiCGStab:  Solving for Uz, Initial residual = 0.0376327, Final residual = 0.000131495, No Iterations 1
GAMG:  Solving for p, Initial residual = 0.284589, Final residual = 0.00152876, No Iterations 3
time step continuity errors : sum local = 9.18058e-05, global = 3.0917e-07, cumulative = 0.000327517
DILUPBiCGStab:  Solving for omega, Initial residual = 0.00709709, Final residual = 6.90296e-07, No Iterations 2
DILUPBiCGStab:  Solving for k, Initial residual = 0.0361579, Final residual = 3.21263e-06, No Iterations 2
ExecutionTime = 9.5 s  ClockTime = 10 s

Time = 84

DILUPBiCGStab:  Solving for Ux, Initial residual = 0.0186654, Final residual = 5.07501e-05, No Iterations 1
DILUPBiCGStab:  Solving for Uy, Initial residual = 0.0757188, Final residual = 0.000230506, No Iterations 1
DILUPBiCGStab:  Solving for Uz, Initial residual = 0.0375788, Final residual = 0.000128665, No Iterations 1
GAMG:  Solving for p, Initial residual = 0.286815, Final residual = 0.00141559, No Iterations 3
time step continuity errors : sum local = 8.34067e-05, global = 3.25917e-07, cumulative = 0.000327843
DILUPBiCGStab:  Solving for omega, Initial residual = 0.00697282, Final residual = 6.94939e-07, No Iterations 2
DILUPBiCGStab:  Solving for k, Initial residual = 0.0356903, Final residual = 3.35104e-06, No Iterations 2
ExecutionTime = 9.62 s  ClockTime = 10 s

Time = 85

DILUPBiCGStab:  Solving for Ux, Initial residual = 0.0186093, Final residual = 5.07904e-05, No Iterations 1
DILUPBiCGStab:  Solving for Uy, Initial residual = 0.0747128, Final residual = 0.000225739, No Iterations 1
DILUPBiCGStab:  Solving for Uz, Initial residual = 0.0377712, Final residual = 0.000125923, No Iterations 1
GAMG:  Solving for p, Initial residual = 0.290423, Final residual = 0.00144207, No Iterations 3
time step continuity errors : sum local = 8.37868e-05, global = 3.77768e-07, cumulative = 0.000328221
DILUPBiCGStab:  Solving for omega, Initial residual = 0.00691195, Final residual = 7.03715e-07, No Iterations 2
DILUPBiCGStab:  Solving for k, Initial residual = 0.0353352, Final residual = 3.38361e-06, No Iterations 2
ExecutionTime = 9.73 s  ClockTime = 10 s

Time = 86

DILUPBiCGStab:  Solving for Ux, Initial residual = 0.0185318, Final residual = 5.12403e-05, No Iterations 1
DILUPBiCGStab:  Solving for Uy, Initial residual = 0.0738917, Final residual = 0.000217621, No Iterations 1
DILUPBiCGStab:  Solving for Uz, Initial residual = 0.0384729, Final residual = 0.000125003, No Iterations 1
GAMG:  Solving for p, Initial residual = 0.29525, Final residual = 0.00149119, No Iterations 3
time step continuity errors : sum local = 8.58456e-05, global = 4.55984e-07, cumulative = 0.000328677
DILUPBiCGStab:  Solving for omega, Initial residual = 0.00684029, Final residual = 7.11264e-07, No Iterations 2
DILUPBiCGStab:  Solving for k, Initial residual = 0.0350117, Final residual = 3.34296e-06, No Iterations 2
ExecutionTime = 9.85 s  ClockTime = 10 s

Time = 87

DILUPBiCGStab:  Solving for Ux, Initial residual = 0.0184662, Final residual = 5.22801e-05, No Iterations 1
DILUPBiCGStab:  Solving for Uy, Initial residual = 0.0732122, Final residual = 0.00021334, No Iterations 1
DILUPBiCGStab:  Solving for Uz, Initial residual = 0.0395164, Final residual = 0.000125264, No Iterations 1
GAMG:  Solving for p, Initial residual = 0.301555, Final residual = 0.00151648, No Iterations 3
time step continuity errors : sum local = 8.67993e-05, global = 2.17059e-07, cumulative = 0.000328894
DILUPBiCGStab:  Solving for omega, Initial residual = 0.00677841, Final residual = 7.25566e-07, No Iterations 2
DILUPBiCGStab:  Solving for k, Initial residual = 0.0347181, Final residual = 3.26193e-06, No Iterations 2
ExecutionTime = 9.95 s  ClockTime = 10 s

Time = 88

DILUPBiCGStab:  Solving for Ux, Initial residual = 0.0185649, Final residual = 5.28482e-05, No Iterations 1
DILUPBiCGStab:  Solving for Uy, Initial residual = 0.0732558, Final residual = 0.000213742, No Iterations 1
DILUPBiCGStab:  Solving for Uz, Initial residual = 0.0407064, Final residual = 0.000126432, No Iterations 1
GAMG:  Solving for p, Initial residual = 0.30439, Final residual = 0.00169289, No Iterations 3
time step continuity errors : sum local = 9.59683e-05, global = 7.02759e-08, cumulative = 0.000328964
DILUPBiCGStab:  Solving for omega, Initial residual = 0.00678178, Final residual = 7.52116e-07, No Iterations 2
DILUPBiCGStab:  Solving for k, Initial residual = 0.0345937, Final residual = 3.1983e-06, No Iterations 2
ExecutionTime = 10.06 s  ClockTime = 11 s

Time = 89

DILUPBiCGStab:  Solving for Ux, Initial residual = 0.0186313, Final residual = 5.25555e-05, No Iterations 1
DILUPBiCGStab:  Solving for Uy, Initial residual = 0.0744172, Final residual = 0.000218549, No Iterations 1
DILUPBiCGStab:  Solving for Uz, Initial residual = 0.0420531, Final residual = 0.000130264, No Iterations 1
GAMG:  Solving for p, Initial residual = 0.303181, Final residual = 0.00188908, No Iterations 3
time step continuity errors : sum local = 0.000106261, global = 4.88083e-07, cumulative = 0.000329452
DILUPBiCGStab:  Solving for omega, Initial residual = 0.0067406, Final residual = 7.87129e-07, No Iterations 2
DILUPBiCGStab:  Solving for k, Initial residual = 0.0344133, Final residual = 3.21078e-06, No Iterations 2
ExecutionTime = 10.17 s  ClockTime = 11 s

Time = 90

DILUPBiCGStab:  Solving for Ux, Initial residual = 0.0185425, Final residual = 5.17512e-05, No Iterations 1
DILUPBiCGStab:  Solving for Uy, Initial residual = 0.0752003, Final residual = 0.000226265, No Iterations 1
DILUPBiCGStab:  Solving for Uz, Initial residual = 0.0432278, Final residual = 0.000134341, No Iterations 1
GAMG:  Solving for p, Initial residual = 0.298583, Final residual = 0.00184914, No Iterations 3
time step continuity errors : sum local = 0.000104008, global = 3.32959e-07, cumulative = 0.000329785
DILUPBiCGStab:  Solving for omega, Initial residual = 0.00667872, Final residual = 8.23973e-07, No Iterations 2
DILUPBiCGStab:  Solving for k, Initial residual = 0.0342688, Final residual = 3.28415e-06, No Iterations 2
ExecutionTime = 10.28 s  ClockTime = 11 s

Time = 91

DILUPBiCGStab:  Solving for Ux, Initial residual = 0.0184607, Final residual = 5.14013e-05, No Iterations 1
DILUPBiCGStab:  Solving for Uy, Initial residual = 0.0765186, Final residual = 0.000232332, No Iterations 1
DILUPBiCGStab:  Solving for Uz, Initial residual = 0.0441232, Final residual = 0.000137118, No Iterations 1
GAMG:  Solving for p, Initial residual = 0.296904, Final residual = 0.00188055, No Iterations 3
time step continuity errors : sum local = 0.000105675, global = 2.90039e-07, cumulative = 0.000330075
DILUPBiCGStab:  Solving for omega, Initial residual = 0.00661408, Final residual = 8.53684e-07, No Iterations 2
DILUPBiCGStab:  Solving for k, Initial residual = 0.0341564, Final residual = 3.39899e-06, No Iterations 2
ExecutionTime = 10.38 s  ClockTime = 11 s

Time = 92

DILUPBiCGStab:  Solving for Ux, Initial residual = 0.0185816, Final residual = 5.06269e-05, No Iterations 1
DILUPBiCGStab:  Solving for Uy, Initial residual = 0.0776219, Final residual = 0.000234548, No Iterations 1
DILUPBiCGStab:  Solving for Uz, Initial residual = 0.0450654, Final residual = 0.000138207, No Iterations 1
GAMG:  Solving for p, Initial residual = 0.289321, Final residual = 0.00178484, No Iterations 3
time step continuity errors : sum local = 0.00010019, global = 2.27488e-07, cumulative = 0.000330303
DILUPBiCGStab:  Solving for omega, Initial residual = 0.00662812, Final residual = 8.83059e-07, No Iterations 2
DILUPBiCGStab:  Solving for k, Initial residual = 0.0339405, Final residual = 3.67833e-06, No Iterations 2
ExecutionTime = 10.5 s  ClockTime = 11 s

Time = 93

DILUPBiCGStab:  Solving for Ux, Initial residual = 0.0187298, Final residual = 5.05687e-05, No Iterations 1
DILUPBiCGStab:  Solving for Uy, Initial residual = 0.0794521, Final residual = 0.000236189, No Iterations 1
DILUPBiCGStab:  Solving for Uz, Initial residual = 0.0459811, Final residual = 0.000138007, No Iterations 1
GAMG:  Solving for p, Initial residual = 0.2887, Final residual = 0.00156049, No Iterations 3
time step continuity errors : sum local = 8.68995e-05, global = 1.85552e-07, cumulative = 0.000330488
DILUPBiCGStab:  Solving for omega, Initial residual = 0.00662821, Final residual = 9.0687e-07, No Iterations 2
DILUPBiCGStab:  Solving for k, Initial residual = 0.0337494, Final residual = 4.32889e-06, No Iterations 2
ExecutionTime = 10.6 s  ClockTime = 11 s

Time = 94

DILUPBiCGStab:  Solving for Ux, Initial residual = 0.0187845, Final residual = 5.01829e-05, No Iterations 1
DILUPBiCGStab:  Solving for Uy, Initial residual = 0.0809034, Final residual = 0.00023411, No Iterations 1
DILUPBiCGStab:  Solving for Uz, Initial residual = 0.0466413, Final residual = 0.000139176, No Iterations 1
GAMG:  Solving for p, Initial residual = 0.289633, Final residual = 0.00139479, No Iterations 3
time step continuity errors : sum local = 7.72357e-05, global = 1.72996e-07, cumulative = 0.000330661
DILUPBiCGStab:  Solving for omega, Initial residual = 0.00653469, Final residual = 9.14697e-07, No Iterations 2
DILUPBiCGStab:  Solving for k, Initial residual = 0.0334714, Final residual = 5.25241e-06, No Iterations 2
ExecutionTime = 10.71 s  ClockTime = 11 s

Time = 95

DILUPBiCGStab:  Solving for Ux, Initial residual = 0.0188261, Final residual = 4.98218e-05, No Iterations 1
DILUPBiCGStab:  Solving for Uy, Initial residual = 0.0809939, Final residual = 0.000227775, No Iterations 1
DILUPBiCGStab:  Solving for Uz, Initial residual = 0.0471937, Final residual = 0.000140078, No Iterations 1
GAMG:  Solving for p, Initial residual = 0.29115, Final residual = 0.00121651, No Iterations 3
time step continuity errors : sum local = 6.68435e-05, global = 1.81309e-07, cumulative = 0.000330842
DILUPBiCGStab:  Solving for omega, Initial residual = 0.00645955, Final residual = 9.23071e-07, No Iterations 2
DILUPBiCGStab:  Solving for k, Initial residual = 0.033393, Final residual = 8.80934e-06, No Iterations 2
ExecutionTime = 10.81 s  ClockTime = 11 s

Time = 96

DILUPBiCGStab:  Solving for Ux, Initial residual = 0.018994, Final residual = 4.89119e-05, No Iterations 1
DILUPBiCGStab:  Solving for Uy, Initial residual = 0.0807576, Final residual = 0.000226178, No Iterations 1
DILUPBiCGStab:  Solving for Uz, Initial residual = 0.0481301, Final residual = 0.00014044, No Iterations 1
GAMG:  Solving for p, Initial residual = 0.289797, Final residual = 0.00133417, No Iterations 3
time step continuity errors : sum local = 7.29303e-05, global = 2.20576e-07, cumulative = 0.000331063
DILUPBiCGStab:  Solving for omega, Initial residual = 0.00643912, Final residual = 9.35345e-07, No Iterations 2
DILUPBiCGStab:  Solving for k, Initial residual = 0.03334, Final residual = 7.16803e-07, No Iterations 3
ExecutionTime = 10.94 s  ClockTime = 11 s

Time = 97

DILUPBiCGStab:  Solving for Ux, Initial residual = 0.0190312, Final residual = 4.85283e-05, No Iterations 1
[...]
ExecutionTime = 53.9 s  ClockTime = 55 s

Time = 476

DILUPBiCGStab:  Solving for Ux, Initial residual = 0.0160635, Final residual = 9.63034e-05, No Iterations 1
DILUPBiCGStab:  Solving for Uy, Initial residual = 0.0568055, Final residual = 0.000322555, No Iterations 1
DILUPBiCGStab:  Solving for Uz, Initial residual = 0.0516884, Final residual = 0.000282355, No Iterations 1
GAMG:  Solving for p, Initial residual = 0.283353, Final residual = 0.00172269, No Iterations 3
time step continuity errors : sum local = 0.00016797, global = 6.00076e-07, cumulative = 0.000409354
DILUPBiCGStab:  Solving for omega, Initial residual = 0.0129909, Final residual = 5.87367e-07, No Iterations 3
DILUPBiCGStab:  Solving for k, Initial residual = 0.0446016, Final residual = 7.67542e-06, No Iterations 3
ExecutionTime = 54.02 s  ClockTime = 55 s

Time = 477

DILUPBiCGStab:  Solving for Ux, Initial residual = 0.0163014, Final residual = 9.66937e-05, No Iterations 1
DILUPBiCGStab:  Solving for Uy, Initial residual = 0.0567448, Final residual = 0.00031747, No Iterations 1
DILUPBiCGStab:  Solving for Uz, Initial residual = 0.0516457, Final residual = 0.000279113, No Iterations 1
GAMG:  Solving for p, Initial residual = 0.28356, Final residual = 0.00175514, No Iterations 3
time step continuity errors : sum local = 0.000172888, global = 1.15596e-06, cumulative = 0.00041051
DILUPBiCGStab:  Solving for omega, Initial residual = 0.0132349, Final residual = 6.57964e-07, No Iterations 3
DILUPBiCGStab:  Solving for k, Initial residual = 0.0449842, Final residual = 9.03059e-06, No Iterations 2
ExecutionTime = 54.14 s  ClockTime = 55 s

Time = 478

DILUPBiCGStab:  Solving for Ux, Initial residual = 0.0165863, Final residual = 9.82549e-05, No Iterations 1
DILUPBiCGStab:  Solving for Uy, Initial residual = 0.057022, Final residual = 0.000304043, No Iterations 1
DILUPBiCGStab:  Solving for Uz, Initial residual = 0.0518446, Final residual = 0.000271032, No Iterations 1
GAMG:  Solving for p, Initial residual = 0.287172, Final residual = 0.00178651, No Iterations 3
time step continuity errors : sum local = 0.000177708, global = 1.26031e-06, cumulative = 0.00041177
DILUPBiCGStab:  Solving for omega, Initial residual = 0.013648, Final residual = 4.99945e-07, No Iterations 3
DILUPBiCGStab:  Solving for k, Initial residual = 0.0461025, Final residual = 9.5256e-06, No Iterations 2
ExecutionTime = 54.25 s  ClockTime = 55 s

Time = 479

DILUPBiCGStab:  Solving for Ux, Initial residual = 0.0168759, Final residual = 0.000100526, No Iterations 1
DILUPBiCGStab:  Solving for Uy, Initial residual = 0.0571854, Final residual = 0.000278989, No Iterations 1
DILUPBiCGStab:  Solving for Uz, Initial residual = 0.0524651, Final residual = 0.000264808, No Iterations 1
GAMG:  Solving for p, Initial residual = 0.292845, Final residual = 0.00182352, No Iterations 3
time step continuity errors : sum local = 0.000183301, global = 1.40432e-06, cumulative = 0.000413175
DILUPBiCGStab:  Solving for omega, Initial residual = 0.0142866, Final residual = 5.11033e-07, No Iterations 3
DILUPBiCGStab:  Solving for k, Initial residual = 0.0486078, Final residual = 1.65703e-06, No Iterations 3
ExecutionTime = 54.37 s  ClockTime = 55 s

Time = 480

DILUPBiCGStab:  Solving for Ux, Initial residual = 0.0171176, Final residual = 0.00010415, No Iterations 1
DILUPBiCGStab:  Solving for Uy, Initial residual = 0.0575425, Final residual = 0.000256764, No Iterations 1
DILUPBiCGStab:  Solving for Uz, Initial residual = 0.0530695, Final residual = 0.000258462, No Iterations 1
GAMG:  Solving for p, Initial residual = 0.297023, Final residual = 0.00186278, No Iterations 3
time step continuity errors : sum local = 0.000189296, global = 1.59051e-06, cumulative = 0.000414765
DILUPBiCGStab:  Solving for omega, Initial residual = 0.0146328, Final residual = 6.53725e-07, No Iterations 3
DILUPBiCGStab:  Solving for k, Initial residual = 0.0527248, Final residual = 7.94078e-06, No Iterations 2
ExecutionTime = 54.48 s  ClockTime = 55 s

Time = 481

DILUPBiCGStab:  Solving for Ux, Initial residual = 0.0174163, Final residual = 0.000108289, No Iterations 1
DILUPBiCGStab:  Solving for Uy, Initial residual = 0.0586043, Final residual = 0.000243736, No Iterations 1
DILUPBiCGStab:  Solving for Uz, Initial residual = 0.0536394, Final residual = 0.000253652, No Iterations 1
GAMG:  Solving for p, Initial residual = 0.298965, Final residual = 0.00192096, No Iterations 3
time step continuity errors : sum local = 0.000197351, global = 1.75635e-06, cumulative = 0.000416522
DILUPBiCGStab:  Solving for omega, Initial residual = 0.0151385, Final residual = 6.94738e-07, No Iterations 3
DILUPBiCGStab:  Solving for k, Initial residual = 0.0559473, Final residual = 7.96695e-06, No Iterations 2
ExecutionTime = 54.6 s  ClockTime = 55 s

Time = 482

DILUPBiCGStab:  Solving for Ux, Initial residual = 0.0178092, Final residual = 0.000112315, No Iterations 1
DILUPBiCGStab:  Solving for Uy, Initial residual = 0.0600738, Final residual = 0.000243303, No Iterations 1
DILUPBiCGStab:  Solving for Uz, Initial residual = 0.0538586, Final residual = 0.000252922, No Iterations 1
GAMG:  Solving for p, Initial residual = 0.29729, Final residual = 0.00197363, No Iterations 3
time step continuity errors : sum local = 0.000204428, global = 1.94707e-06, cumulative = 0.000418469
DILUPBiCGStab:  Solving for omega, Initial residual = 0.0154788, Final residual = 7.07177e-07, No Iterations 3
DILUPBiCGStab:  Solving for k, Initial residual = 0.0602141, Final residual = 7.38861e-06, No Iterations 2
ExecutionTime = 54.71 s  ClockTime = 55 s

Time = 483

DILUPBiCGStab:  Solving for Ux, Initial residual = 0.0182649, Final residual = 0.000113941, No Iterations 1
DILUPBiCGStab:  Solving for Uy, Initial residual = 0.0615819, Final residual = 0.000259047, No Iterations 1
DILUPBiCGStab:  Solving for Uz, Initial residual = 0.0544526, Final residual = 0.000252965, No Iterations 1
GAMG:  Solving for p, Initial residual = 0.294711, Final residual = 0.0020228, No Iterations 3
time step continuity errors : sum local = 0.000211235, global = 2.17728e-06, cumulative = 0.000420646
DILUPBiCGStab:  Solving for omega, Initial residual = 0.0164419, Final residual = 6.69604e-07, No Iterations 3
DILUPBiCGStab:  Solving for k, Initial residual = 0.0655946, Final residual = 6.67062e-06, No Iterations 2
ExecutionTime = 54.83 s  ClockTime = 55 s

Time = 484

DILUPBiCGStab:  Solving for Ux, Initial residual = 0.0189975, Final residual = 0.000113023, No Iterations 1
DILUPBiCGStab:  Solving for Uy, Initial residual = 0.062823, Final residual = 0.000273808, No Iterations 1
DILUPBiCGStab:  Solving for Uz, Initial residual = 0.0552622, Final residual = 0.000255338, No Iterations 1
GAMG:  Solving for p, Initial residual = 0.294189, Final residual = 0.0020882, No Iterations 3
time step continuity errors : sum local = 0.000219309, global = 2.24682e-06, cumulative = 0.000422893
DILUPBiCGStab:  Solving for omega, Initial residual = 0.0169162, Final residual = 5.98891e-07, No Iterations 3
DILUPBiCGStab:  Solving for k, Initial residual = 0.0718775, Final residual = 6.72183e-06, No Iterations 2
ExecutionTime = 54.94 s  ClockTime = 56 s

Time = 485

DILUPBiCGStab:  Solving for Ux, Initial residual = 0.0196317, Final residual = 0.000111162, No Iterations 1
DILUPBiCGStab:  Solving for Uy, Initial residual = 0.0627201, Final residual = 0.000293036, No Iterations 1
DILUPBiCGStab:  Solving for Uz, Initial residual = 0.0561406, Final residual = 0.000262959, No Iterations 1
GAMG:  Solving for p, Initial residual = 0.294679, Final residual = 0.00214131, No Iterations 3
time step continuity errors : sum local = 0.000225429, global = 1.36316e-06, cumulative = 0.000424256
DILUPBiCGStab:  Solving for omega, Initial residual = 0.0180188, Final residual = 4.6438e-07, No Iterations 3
DILUPBiCGStab:  Solving for k, Initial residual = 0.0781694, Final residual = 6.5988e-06, No Iterations 2
ExecutionTime = 55.05 s  ClockTime = 56 s

Time = 486

DILUPBiCGStab:  Solving for Ux, Initial residual = 0.0200392, Final residual = 0.000114288, No Iterations 1
DILUPBiCGStab:  Solving for Uy, Initial residual = 0.0616735, Final residual = 0.000320629, No Iterations 1
DILUPBiCGStab:  Solving for Uz, Initial residual = 0.0566468, Final residual = 0.000261734, No Iterations 1
GAMG:  Solving for p, Initial residual = 0.296199, Final residual = 0.00219823, No Iterations 3
time step continuity errors : sum local = 0.000232395, global = 2.03989e-06, cumulative = 0.000426296
DILUPBiCGStab:  Solving for omega, Initial residual = 0.018113, Final residual = 4.14922e-07, No Iterations 3
DILUPBiCGStab:  Solving for k, Initial residual = 0.0739348, Final residual = 5.3463e-06, No Iterations 2
ExecutionTime = 55.17 s  ClockTime = 56 s

Time = 487

DILUPBiCGStab:  Solving for Ux, Initial residual = 0.0200847, Final residual = 0.000106951, No Iterations 1
DILUPBiCGStab:  Solving for Uy, Initial residual = 0.0603822, Final residual = 0.000326371, No Iterations 1
DILUPBiCGStab:  Solving for Uz, Initial residual = 0.0581766, Final residual = 0.000263294, No Iterations 1
GAMG:  Solving for p, Initial residual = 0.29653, Final residual = 0.00226506, No Iterations 3
time step continuity errors : sum local = 0.000240737, global = 1.69395e-06, cumulative = 0.00042799
DILUPBiCGStab:  Solving for omega, Initial residual = 0.0174697, Final residual = 4.15202e-07, No Iterations 3
DILUPBiCGStab:  Solving for k, Initial residual = 0.0625821, Final residual = 4.94089e-06, No Iterations 2
ExecutionTime = 55.28 s  ClockTime = 56 s

Time = 488

DILUPBiCGStab:  Solving for Ux, Initial residual = 0.0200227, Final residual = 0.000109987, No Iterations 1
DILUPBiCGStab:  Solving for Uy, Initial residual = 0.0593801, Final residual = 0.000357312, No Iterations 1
DILUPBiCGStab:  Solving for Uz, Initial residual = 0.0581352, Final residual = 0.000251553, No Iterations 1
GAMG:  Solving for p, Initial residual = 0.295416, Final residual = 0.0023673, No Iterations 3
time step continuity errors : sum local = 0.000251453, global = 1.20331e-06, cumulative = 0.000429193
DILUPBiCGStab:  Solving for omega, Initial residual = 0.0168831, Final residual = 9.12514e-07, No Iterations 3
DILUPBiCGStab:  Solving for k, Initial residual = 0.0594309, Final residual = 4.41379e-06, No Iterations 2
ExecutionTime = 55.39 s  ClockTime = 56 s

Time = 489

DILUPBiCGStab:  Solving for Ux, Initial residual = 0.0202357, Final residual = 0.000107017, No Iterations 1
DILUPBiCGStab:  Solving for Uy, Initial residual = 0.0588941, Final residual = 0.000371813, No Iterations 1
DILUPBiCGStab:  Solving for Uz, Initial residual = 0.0587239, Final residual = 0.000239821, No Iterations 1
GAMG:  Solving for p, Initial residual = 0.294725, Final residual = 0.00200495, No Iterations 3
time step continuity errors : sum local = 0.000212687, global = 1.24767e-06, cumulative = 0.000430441
DILUPBiCGStab:  Solving for omega, Initial residual = 0.0162773, Final residual = 4.45742e-07, No Iterations 3
DILUPBiCGStab:  Solving for k, Initial residual = 0.0528417, Final residual = 4.38685e-06, No Iterations 2
ExecutionTime = 55.51 s  ClockTime = 56 s

Time = 490

DILUPBiCGStab:  Solving for Ux, Initial residual = 0.0202964, Final residual = 0.000102043, No Iterations 1
DILUPBiCGStab:  Solving for Uy, Initial residual = 0.0587102, Final residual = 0.000380961, No Iterations 1
DILUPBiCGStab:  Solving for Uz, Initial residual = 0.0580113, Final residual = 0.000230306, No Iterations 1
GAMG:  Solving for p, Initial residual = 0.292181, Final residual = 0.00225264, No Iterations 3
time step continuity errors : sum local = 0.000238813, global = 9.59075e-07, cumulative = 0.0004314
DILUPBiCGStab:  Solving for omega, Initial residual = 0.0165854, Final residual = 5.80594e-07, No Iterations 3
DILUPBiCGStab:  Solving for k, Initial residual = 0.0515606, Final residual = 4.73925e-06, No Iterations 2
ExecutionTime = 55.62 s  ClockTime = 56 s

Time = 491

DILUPBiCGStab:  Solving for Ux, Initial residual = 0.0204096, Final residual = 0.000100502, No Iterations 1
DILUPBiCGStab:  Solving for Uy, Initial residual = 0.0578172, Final residual = 0.000387214, No Iterations 1
DILUPBiCGStab:  Solving for Uz, Initial residual = 0.0567184, Final residual = 0.000229946, No Iterations 1
GAMG:  Solving for p, Initial residual = 0.297357, Final residual = 0.00240873, No Iterations 3
time step continuity errors : sum local = 0.000253799, global = 7.78042e-07, cumulative = 0.000432178
DILUPBiCGStab:  Solving for omega, Initial residual = 0.0174034, Final residual = 7.15816e-07, No Iterations 3
DILUPBiCGStab:  Solving for k, Initial residual = 0.0537591, Final residual = 5.26774e-06, No Iterations 2
ExecutionTime = 55.73 s  ClockTime = 56 s

Time = 492

DILUPBiCGStab:  Solving for Ux, Initial residual = 0.0203609, Final residual = 0.000101295, No Iterations 1
DILUPBiCGStab:  Solving for Uy, Initial residual = 0.0579224, Final residual = 0.000377807, No Iterations 1
DILUPBiCGStab:  Solving for Uz, Initial residual = 0.0553713, Final residual = 0.000224054, No Iterations 1
GAMG:  Solving for p, Initial residual = 0.303263, Final residual = 0.00234143, No Iterations 3
time step continuity errors : sum local = 0.000243738, global = 5.0875e-07, cumulative = 0.000432687
DILUPBiCGStab:  Solving for omega, Initial residual = 0.0181502, Final residual = 6.15804e-07, No Iterations 3
DILUPBiCGStab:  Solving for k, Initial residual = 0.0574234, Final residual = 6.18808e-06, No Iterations 2
ExecutionTime = 55.85 s  ClockTime = 56 s

Time = 493

DILUPBiCGStab:  Solving for Ux, Initial residual = 0.0201233, Final residual = 0.00010166, No Iterations 1
DILUPBiCGStab:  Solving for Uy, Initial residual = 0.0588667, Final residual = 0.000354449, No Iterations 1
DILUPBiCGStab:  Solving for Uz, Initial residual = 0.0549447, Final residual = 0.000221037, No Iterations 1
GAMG:  Solving for p, Initial residual = 0.310513, Final residual = 0.00235608, No Iterations 3
time step continuity errors : sum local = 0.000241261, global = 2.48232e-07, cumulative = 0.000432935
DILUPBiCGStab:  Solving for omega, Initial residual = 0.0185824, Final residual = 5.97239e-07, No Iterations 3
DILUPBiCGStab:  Solving for k, Initial residual = 0.0573503, Final residual = 6.73032e-06, No Iterations 2
ExecutionTime = 55.96 s  ClockTime = 57 s

Time = 494

DILUPBiCGStab:  Solving for Ux, Initial residual = 0.0199576, Final residual = 0.000100418, No Iterations 1
DILUPBiCGStab:  Solving for Uy, Initial residual = 0.0590849, Final residual = 0.000326036, No Iterations 1
DILUPBiCGStab:  Solving for Uz, Initial residual = 0.0557683, Final residual = 0.000227078, No Iterations 1
GAMG:  Solving for p, Initial residual = 0.320364, Final residual = 0.00270474, No Iterations 3
time step continuity errors : sum local = 0.00026969, global = -1.07365e-07, cumulative = 0.000432828
DILUPBiCGStab:  Solving for omega, Initial residual = 0.0186647, Final residual = 7.12007e-07, No Iterations 3
DILUPBiCGStab:  Solving for k, Initial residual = 0.0569147, Final residual = 6.92178e-06, No Iterations 2
ExecutionTime = 56.07 s  ClockTime = 57 s

Time = 495

DILUPBiCGStab:  Solving for Ux, Initial residual = 0.0197878, Final residual = 0.000100299, No Iterations 1
DILUPBiCGStab:  Solving for Uy, Initial residual = 0.0593074, Final residual = 0.000299697, No Iterations 1
DILUPBiCGStab:  Solving for Uz, Initial residual = 0.0570166, Final residual = 0.000234064, No Iterations 1
GAMG:  Solving for p, Initial residual = 0.328987, Final residual = 0.00309861, No Iterations 3
time step continuity errors : sum local = 0.000298951, global = -4.26378e-07, cumulative = 0.000432401
DILUPBiCGStab:  Solving for omega, Initial residual = 0.0183268, Final residual = 4.26459e-07, No Iterations 3
DILUPBiCGStab:  Solving for k, Initial residual = 0.0578953, Final residual = 6.98708e-06, No Iterations 2
ExecutionTime = 56.18 s  ClockTime = 57 s

Time = 496

DILUPBiCGStab:  Solving for Ux, Initial residual = 0.0197473, Final residual = 0.000101711, No Iterations 1
DILUPBiCGStab:  Solving for Uy, Initial residual = 0.0592024, Final residual = 0.000280132, No Iterations 1
DILUPBiCGStab:  Solving for Uz, Initial residual = 0.0584805, Final residual = 0.000244765, No Iterations 1
GAMG:  Solving for p, Initial residual = 0.337332, Final residual = 0.00310485, No Iterations 3
time step continuity errors : sum local = 0.000291737, global = -6.63658e-07, cumulative = 0.000431738
DILUPBiCGStab:  Solving for omega, Initial residual = 0.0176095, Final residual = 4.88496e-07, No Iterations 3
DILUPBiCGStab:  Solving for k, Initial residual = 0.0573496, Final residual = 7.12754e-06, No Iterations 2
ExecutionTime = 56.31 s  ClockTime = 57 s

Time = 497

DILUPBiCGStab:  Solving for Ux, Initial residual = 0.0195686, Final residual = 0.000104351, No Iterations 1
DILUPBiCGStab:  Solving for Uy, Initial residual = 0.0582183, Final residual = 0.000262071, No Iterations 1
DILUPBiCGStab:  Solving for Uz, Initial residual = 0.0592522, Final residual = 0.000258503, No Iterations 1
GAMG:  Solving for p, Initial residual = 0.341782, Final residual = 0.00256599, No Iterations 3
time step continuity errors : sum local = 0.000237489, global = -8.73843e-07, cumulative = 0.000430864
DILUPBiCGStab:  Solving for omega, Initial residual = 0.0161713, Final residual = 5.73211e-07, No Iterations 3
DILUPBiCGStab:  Solving for k, Initial residual = 0.0540649, Final residual = 7.40314e-06, No Iterations 2
ExecutionTime = 56.41 s  ClockTime = 57 s

Time = 498

DILUPBiCGStab:  Solving for Ux, Initial residual = 0.0191991, Final residual = 0.00010372, No Iterations 1
DILUPBiCGStab:  Solving for Uy, Initial residual = 0.056921, Final residual = 0.00024458, No Iterations 1
DILUPBiCGStab:  Solving for Uz, Initial residual = 0.0585417, Final residual = 0.000268746, No Iterations 1
GAMG:  Solving for p, Initial residual = 0.341821, Final residual = 0.00241977, No Iterations 3
time step continuity errors : sum local = 0.000221155, global = -1.24255e-06, cumulative = 0.000429621
DILUPBiCGStab:  Solving for omega, Initial residual = 0.0148521, Final residual = 6.25668e-07, No Iterations 3
DILUPBiCGStab:  Solving for k, Initial residual = 0.0510791, Final residual = 8.74579e-06, No Iterations 2
ExecutionTime = 56.53 s  ClockTime = 57 s

Time = 499

DILUPBiCGStab:  Solving for Ux, Initial residual = 0.0187907, Final residual = 0.000102942, No Iterations 1
DILUPBiCGStab:  Solving for Uy, Initial residual = 0.055536, Final residual = 0.000235089, No Iterations 1
DILUPBiCGStab:  Solving for Uz, Initial residual = 0.0568387, Final residual = 0.000276138, No Iterations 1
GAMG:  Solving for p, Initial residual = 0.334369, Final residual = 0.00243988, No Iterations 3
time step continuity errors : sum local = 0.000221118, global = -1.64436e-06, cumulative = 0.000427977
DILUPBiCGStab:  Solving for omega, Initial residual = 0.0140355, Final residual = 6.28781e-07, No Iterations 3
DILUPBiCGStab:  Solving for k, Initial residual = 0.0488185, Final residual = 8.87117e-06, No Iterations 2
ExecutionTime = 56.63 s  ClockTime = 57 s

Time = 500

DILUPBiCGStab:  Solving for Ux, Initial residual = 0.0184408, Final residual = 0.000102063, No Iterations 1
DILUPBiCGStab:  Solving for Uy, Initial residual = 0.0547042, Final residual = 0.00022969, No Iterations 1
DILUPBiCGStab:  Solving for Uz, Initial residual = 0.0555122, Final residual = 0.000284128, No Iterations 1
GAMG:  Solving for p, Initial residual = 0.327818, Final residual = 0.00240564, No Iterations 3
time step continuity errors : sum local = 0.00021589, global = -1.47653e-07, cumulative = 0.000427829
DILUPBiCGStab:  Solving for omega, Initial residual = 0.0130398, Final residual = 6.62402e-07, No Iterations 3
DILUPBiCGStab:  Solving for k, Initial residual = 0.0466022, Final residual = 8.3841e-06, No Iterations 2
ExecutionTime = 56.79 s  ClockTime = 57 s

End

Finalising parallel run
